*SPEF "ieee 1481-1999"
*DESIGN "rca_4bit"
*DATE "11:11:11 Fri 11 11, 1111"
*VENDOR "OpenRCX"
*PROGRAM "Parallel Extraction"
*VERSION "1.0"
*DESIGN_FLOW "NAME_SCOPE LOCAL" "PIN_CAP NONE"
*DIVIDER /
*DELIMITER :
*BUS_DELIMITER []
*T_UNIT 1 NS
*C_UNIT 1 PF
*R_UNIT 1 OHM
*L_UNIT 1 HENRY

*NAME_MAP
*3 a[0]
*4 a[1]
*5 a[2]
*6 a[3]
*7 b[0]
*8 b[1]
*9 b[2]
*10 b[3]
*11 cin
*12 cout
*13 sum[0]
*14 sum[1]
*15 sum[2]
*16 sum[3]
*17 _00_
*18 _01_
*19 _02_
*20 _03_
*21 _04_
*22 _05_
*23 _06_
*24 _07_
*25 _08_
*26 _09_
*27 _10_
*28 _11_
*29 _12_
*30 _13_
*31 _14_
*32 _15_
*33 _16_
*34 net1
*35 net10
*36 net11
*37 net12
*38 net13
*39 net14
*40 net2
*41 net3
*42 net4
*43 net5
*44 net6
*45 net7
*46 net8
*47 net9
*48 FILLER_0_0_14
*49 FILLER_0_0_20
*50 FILLER_0_0_29
*51 FILLER_0_0_41
*52 FILLER_0_0_51
*53 FILLER_0_0_55
*54 FILLER_0_0_57
*55 FILLER_0_0_6
*56 FILLER_0_0_69
*57 FILLER_0_1_18
*58 FILLER_0_1_30
*59 FILLER_0_1_42
*60 FILLER_0_1_54
*61 FILLER_0_1_57
*62 FILLER_0_1_6
*63 FILLER_0_1_69
*64 FILLER_0_2_15
*65 FILLER_0_2_27
*66 FILLER_0_2_29
*67 FILLER_0_2_3
*68 FILLER_0_2_41
*69 FILLER_0_2_53
*70 FILLER_0_2_65
*71 FILLER_0_2_76
*72 FILLER_0_2_80
*73 FILLER_0_3_15
*74 FILLER_0_3_27
*75 FILLER_0_3_3
*76 FILLER_0_3_39
*77 FILLER_0_3_51
*78 FILLER_0_3_55
*79 FILLER_0_3_57
*80 FILLER_0_3_76
*81 FILLER_0_3_80
*82 FILLER_0_4_15
*83 FILLER_0_4_27
*84 FILLER_0_4_29
*85 FILLER_0_4_3
*86 FILLER_0_4_38
*87 FILLER_0_4_50
*88 FILLER_0_4_58
*89 FILLER_0_4_63
*90 FILLER_0_4_72
*91 FILLER_0_4_76
*92 FILLER_0_5_15
*93 FILLER_0_5_23
*94 FILLER_0_5_3
*95 FILLER_0_5_41
*96 FILLER_0_5_53
*97 FILLER_0_5_57
*98 FILLER_0_5_73
*99 FILLER_0_6_18
*100 FILLER_0_6_22
*101 FILLER_0_6_47
*102 FILLER_0_6_56
*103 FILLER_0_6_6
*104 FILLER_0_6_68
*105 FILLER_0_6_80
*106 FILLER_0_7_15
*107 FILLER_0_7_27
*108 FILLER_0_7_3
*109 FILLER_0_7_40
*110 FILLER_0_7_52
*111 FILLER_0_7_57
*112 FILLER_0_7_69
*113 FILLER_0_8_15
*114 FILLER_0_8_27
*115 FILLER_0_8_29
*116 FILLER_0_8_3
*117 FILLER_0_8_41
*118 FILLER_0_8_53
*119 FILLER_0_8_65
*120 FILLER_0_8_77
*121 FILLER_0_9_15
*122 FILLER_0_9_27
*123 FILLER_0_9_29
*124 FILLER_0_9_37
*125 FILLER_0_9_41
*126 FILLER_0_9_53
*127 FILLER_0_9_57
*128 FILLER_0_9_65
*129 FILLER_0_9_69
*130 PHY_0
*131 PHY_1
*132 PHY_10
*133 PHY_11
*134 PHY_12
*135 PHY_13
*136 PHY_14
*137 PHY_15
*138 PHY_16
*139 PHY_17
*140 PHY_18
*141 PHY_19
*142 PHY_2
*143 PHY_3
*144 PHY_4
*145 PHY_5
*146 PHY_6
*147 PHY_7
*148 PHY_8
*149 PHY_9
*150 TAP_20
*151 TAP_21
*152 TAP_22
*153 TAP_23
*154 TAP_24
*155 TAP_25
*156 TAP_26
*157 TAP_27
*158 TAP_28
*159 TAP_29
*160 TAP_30
*161 TAP_31
*162 _17_
*163 _18_
*164 _19_
*165 _20_
*166 _21_
*167 _22_
*168 _23_
*169 _24_
*170 _25_
*171 _26_
*172 _27_
*173 _28_
*174 _29_
*175 _30_
*176 _31_
*177 _32_
*178 _33_
*179 _34_
*180 _35_
*181 _36_
*182 _37_
*183 _38_
*184 input1
*185 input2
*186 input3
*187 input4
*188 input5
*189 input6
*190 input7
*191 input8
*192 input9
*193 output10
*194 output11
*195 output12
*196 output13
*197 output14

*PORTS
a[0] I
a[1] I
a[2] I
a[3] I
b[0] I
b[1] I
b[2] I
b[3] I
cin I
cout O
sum[0] O
sum[1] O
sum[2] O
sum[3] O

*D_NET *3 0.000881682
*CONN
*P a[0] I
*I *184:A I *D sky130_fd_sc_hd__buf_1
*CAP
1 a[0] 0.000440841
2 *184:A 0.000440841
*RES
1 a[0] *184:A 11.355 
*END

*D_NET *4 0.0012105
*CONN
*P a[1] I
*I *185:A I *D sky130_fd_sc_hd__buf_1
*CAP
1 a[1] 0.000531369
2 *185:A 0.000531369
3 *185:A *193:A 0.000147759
*RES
1 a[1] *185:A 8.05157 
*END

*D_NET *5 0.000974779
*CONN
*P a[2] I
*I *186:A I *D sky130_fd_sc_hd__clkbuf_1
*CAP
1 a[2] 0.000352567
2 *186:A 0.000352567
3 *186:A *191:A 0.000269645
*RES
1 a[2] *186:A 11.355 
*END

*D_NET *6 0.000534132
*CONN
*P a[3] I
*I *187:A I *D sky130_fd_sc_hd__clkbuf_1
*CAP
1 a[3] 0.000267066
2 *187:A 0.000267066
3 *187:A *189:A 0
*RES
1 a[3] *187:A 7.15043 
*END

*D_NET *7 0.000493536
*CONN
*P b[0] I
*I *188:A I *D sky130_fd_sc_hd__buf_1
*CAP
1 b[0] 0.000246768
2 *188:A 0.000246768
*RES
1 b[0] *188:A 5.35677 
*END

*D_NET *8 0.00133661
*CONN
*P b[1] I
*I *189:A I *D sky130_fd_sc_hd__buf_1
*CAP
1 b[1] 0.000668303
2 *189:A 0.000668303
3 *187:A *189:A 0
*RES
1 b[1] *189:A 15.18 
*END

*D_NET *9 0.000901337
*CONN
*P b[2] I
*I *190:A I *D sky130_fd_sc_hd__clkbuf_1
*CAP
1 b[2] 0.000450669
2 *190:A 0.000450669
*RES
1 b[2] *190:A 11.475 
*END

*D_NET *10 0.00139775
*CONN
*P b[3] I
*I *191:A I *D sky130_fd_sc_hd__clkbuf_1
*CAP
1 b[3] 0.000561701
2 *191:A 0.000561701
3 *191:A *46:14 4.7072e-06
4 *186:A *191:A 0.000269645
*RES
1 b[3] *191:A 11.7548 
*END

*D_NET *11 0.00105582
*CONN
*P cin I
*I *192:A I *D sky130_fd_sc_hd__buf_1
*CAP
1 cin 0.000484687
2 *192:A 0.000484687
3 *192:A *196:A 8.64421e-05
*RES
1 cin *192:A 12.27 
*END

*D_NET *12 0.00144316
*CONN
*P cout O
*I *193:X O *D sky130_fd_sc_hd__clkbuf_4
*CAP
1 cout 0.000721579
2 *193:X 0.000721579
*RES
1 *193:X cout 15.345 
*END

*D_NET *13 0.000995794
*CONN
*P sum[0] O
*I *194:X O *D sky130_fd_sc_hd__clkbuf_4
*CAP
1 sum[0] 0.000484436
2 *194:X 0.000484436
3 sum[0] *194:A 2.69217e-05
*RES
1 *194:X sum[0] 11.43 
*END

*D_NET *14 0.00235732
*CONN
*P sum[1] O
*I *195:X O *D sky130_fd_sc_hd__clkbuf_4
*CAP
1 sum[1] 0.00109065
2 *195:X 0.00109065
3 sum[1] *195:A 0.000160777
4 sum[1] *196:A 1.52352e-05
*RES
1 *195:X sum[1] 13.8023 
*END

*D_NET *15 0.000929117
*CONN
*P sum[2] O
*I *196:X O *D sky130_fd_sc_hd__clkbuf_4
*CAP
1 sum[2] 0.000464559
2 *196:X 0.000464559
*RES
1 *196:X sum[2] 11.205 
*END

*D_NET *16 0.000703313
*CONN
*P sum[3] O
*I *197:X O *D sky130_fd_sc_hd__buf_2
*CAP
1 sum[3] 0.000351657
2 *197:X 0.000351657
*RES
1 *197:X sum[3] 7.4637 
*END

*D_NET *17 0.00219759
*CONN
*I *173:A1 I *D sky130_fd_sc_hd__a31o_1
*I *169:A1 I *D sky130_fd_sc_hd__a22o_1
*I *164:A I *D sky130_fd_sc_hd__nand2_1
*I *170:A I *D sky130_fd_sc_hd__nand4_1
*I *162:Y O *D sky130_fd_sc_hd__nand2_1
*CAP
1 *173:A1 4.02857e-05
2 *169:A1 0
3 *164:A 5.32451e-05
4 *170:A 8.81594e-05
5 *162:Y 0
6 *17:33 0.000205124
7 *17:21 0.000315573
8 *17:4 0.000211568
9 *164:A *164:B 9.70692e-05
10 *164:A *169:B1 0.000192562
11 *170:A *170:C 5.74791e-05
12 *170:A *171:B 4.89362e-05
13 *170:A *195:A 8.52939e-05
14 *173:A1 *168:B 8.35118e-05
15 *173:A1 *173:B1 4.66108e-05
16 *17:21 *162:A 0.000231402
17 *17:21 *170:C 9.08126e-05
18 *17:21 *171:A 1.01155e-05
19 *17:21 *173:B1 0.000121023
20 *17:33 *162:A 2.01934e-05
21 *17:33 *164:B 7.01303e-05
22 *17:33 *168:B 2.01934e-05
23 *17:33 *170:B 2.9909e-05
24 *17:33 *20:14 3.61252e-05
25 *17:33 *20:23 2.43163e-05
26 *17:33 *44:35 1.79536e-05
*RES
1 *162:Y *17:4 1.6 
2 *17:4 *170:A 3.43 
3 *17:4 *17:21 7.48 
4 *17:21 *17:33 7.15 
5 *17:33 *164:A 3.805 
6 *17:33 *169:A1 1.6 
7 *17:21 *173:A1 2.755 
*END

*D_NET *18 0.00129732
*CONN
*I *164:B I *D sky130_fd_sc_hd__nand2_1
*I *163:X O *D sky130_fd_sc_hd__or2_1
*CAP
1 *164:B 0.000365237
2 *163:X 0.000365237
3 *164:B *162:A 2.59934e-06
4 *164:B *168:B 4.66108e-05
5 *164:B *169:B1 3.04704e-05
6 *164:B *169:B2 3.50152e-06
7 *164:B *171:A 4.89295e-05
8 *164:B *20:23 7.03219e-05
9 *164:B *44:14 0.000159702
10 *164:B *44:35 3.75126e-05
11 *164:A *164:B 9.70692e-05
12 *17:33 *164:B 7.01303e-05
*RES
1 *163:X *164:B 13.485 
*END

*D_NET *19 0.000448597
*CONN
*I *165:B I *D sky130_fd_sc_hd__xnor2_1
*I *164:Y O *D sky130_fd_sc_hd__nand2_1
*CAP
1 *165:B 0.000207777
2 *164:Y 0.000207777
3 *165:B *194:A 3.30434e-05
*RES
1 *164:Y *165:B 10.515 
*END

*D_NET *20 0.00215633
*CONN
*I *170:B I *D sky130_fd_sc_hd__nand4_1
*I *173:A2 I *D sky130_fd_sc_hd__a31o_1
*I *169:A2 I *D sky130_fd_sc_hd__a22o_1
*I *166:Y O *D sky130_fd_sc_hd__o21ai_2
*CAP
1 *170:B 0.000351299
2 *173:A2 9.35264e-05
3 *169:A2 0
4 *166:Y 0.000204621
5 *20:23 0.000496457
6 *20:14 0.000256253
7 *170:B *171:A 0.00019877
8 *170:B *171:B 5.35313e-05
9 *170:B *195:A 5.44377e-05
10 *173:A2 *168:B 8.23457e-05
11 *173:A2 *171:A 4.72463e-05
12 *173:A2 *21:12 2.2684e-05
13 *20:14 *166:B1 4.89295e-05
14 *20:14 *169:B2 1.52352e-05
15 *20:23 *171:A 7.03219e-05
16 *164:B *20:23 7.03219e-05
17 *17:33 *170:B 2.9909e-05
18 *17:33 *20:14 3.61252e-05
19 *17:33 *20:23 2.43163e-05
*RES
1 *166:Y *20:14 6.6 
2 *20:14 *169:A2 3.6 
3 *20:14 *20:23 1.38 
4 *20:23 *173:A2 9.01 
5 *20:23 *170:B 8.82 
*END

*D_NET *21 0.00290034
*CONN
*I *169:B1 I *D sky130_fd_sc_hd__a22o_1
*I *170:C I *D sky130_fd_sc_hd__nand4_1
*I *173:A3 I *D sky130_fd_sc_hd__a31o_1
*I *167:Y O *D sky130_fd_sc_hd__nand2_1
*CAP
1 *169:B1 0.000355687
2 *170:C 0.000424361
3 *173:A3 1.02931e-05
4 *167:Y 5.0217e-05
5 *21:12 0.00056101
6 *21:6 0.000532259
7 *169:B1 *166:B1 8.50369e-06
8 *169:B1 *169:B2 5.12969e-06
9 *170:C *162:B 2.65814e-06
10 *170:C *170:D 1.14169e-05
11 *170:C *171:A 9.57372e-06
12 *170:C *195:A 0.000232955
13 *173:A3 *168:B 4.77719e-05
14 *173:A3 *173:B1 4.77719e-05
15 *21:6 *40:16 8.53011e-05
16 *21:12 *168:B 8.5067e-05
17 *21:12 *40:16 3.6355e-05
18 *164:A *169:B1 0.000192562
19 *164:B *169:B1 3.04704e-05
20 *170:A *170:C 5.74791e-05
21 *173:A2 *21:12 2.2684e-05
22 *17:21 *170:C 9.08126e-05
*RES
1 *167:Y *21:6 2.395 
2 *21:6 *21:12 3.755 
3 *21:12 *173:A3 4.05 
4 *21:12 *170:C 10.215 
5 *21:6 *169:B1 11.42 
*END

*D_NET *22 0.0011424
*CONN
*I *170:D I *D sky130_fd_sc_hd__nand4_1
*I *169:B2 I *D sky130_fd_sc_hd__a22o_1
*I *168:X O *D sky130_fd_sc_hd__or2_1
*CAP
1 *170:D 0.00014241
2 *169:B2 0.000255112
3 *168:X 3.77064e-05
4 *22:8 0.000435228
5 *169:B2 *166:A1 7.27704e-06
6 *169:B2 *166:A2 1.26044e-05
7 *169:B2 *166:B1 8.32197e-05
8 *169:B2 *44:14 6.80167e-05
9 *170:D *195:A 4.77757e-05
10 *22:8 *162:A 1.77665e-05
11 *164:B *169:B2 3.50152e-06
12 *169:B1 *169:B2 5.12969e-06
13 *170:C *170:D 1.14169e-05
14 *20:14 *169:B2 1.52352e-05
*RES
1 *168:X *22:8 4.05 
2 *22:8 *169:B2 8.115 
3 *22:8 *170:D 5.685 
*END

*D_NET *23 0.000878191
*CONN
*I *171:A I *D sky130_fd_sc_hd__nand2_1
*I *169:X O *D sky130_fd_sc_hd__a22o_1
*CAP
1 *171:A 0.000180386
2 *169:X 0.000180386
3 *171:A *162:A 0.000132462
4 *164:B *171:A 4.89295e-05
5 *170:B *171:A 0.00019877
6 *170:C *171:A 9.57372e-06
7 *173:A2 *171:A 4.72463e-05
8 *17:21 *171:A 1.01155e-05
9 *20:23 *171:A 7.03219e-05
*RES
1 *169:X *171:A 11.325 
*END

*D_NET *24 0.000187033
*CONN
*I *171:B I *D sky130_fd_sc_hd__nand2_1
*I *170:Y O *D sky130_fd_sc_hd__nand4_1
*CAP
1 *171:B 4.22827e-05
2 *170:Y 4.22827e-05
3 *170:A *171:B 4.89362e-05
4 *170:B *171:B 5.35313e-05
*RES
1 *170:Y *171:B 4.265 
*END

*D_NET *25 0.000564573
*CONN
*I *173:B1 I *D sky130_fd_sc_hd__a31o_1
*I *172:Y O *D sky130_fd_sc_hd__nor2_1
*CAP
1 *173:B1 7.87206e-05
2 *172:Y 7.87206e-05
3 *173:B1 *168:B 7.65078e-05
4 *173:B1 *26:8 8.64488e-05
5 *173:B1 *40:16 2.87688e-05
6 *173:A1 *173:B1 4.66108e-05
7 *173:A3 *173:B1 4.77719e-05
8 *17:21 *173:B1 0.000121023
*RES
1 *172:Y *173:B1 5.72 
*END

*D_NET *26 0.00153786
*CONN
*I *177:A I *D sky130_fd_sc_hd__xor2_1
*I *181:A1 I *D sky130_fd_sc_hd__a21boi_1
*I *173:X O *D sky130_fd_sc_hd__a31o_1
*CAP
1 *177:A 0
2 *181:A1 0.000337318
3 *173:X 0.000286816
4 *26:8 0.000624134
5 *181:A1 *181:A2 1.9872e-05
6 *181:A1 *27:12 4.6368e-06
7 *26:8 *167:A 2.69217e-05
8 *26:8 *40:14 0.000110017
9 *26:8 *40:16 4.16923e-05
10 *173:B1 *26:8 8.64488e-05
*RES
1 *173:X *26:8 6.805 
2 *26:8 *181:A1 9.5 
3 *26:8 *177:A 1.6 
*END

*D_NET *27 0.00113311
*CONN
*I *176:A I *D sky130_fd_sc_hd__nand2_1
*I *181:A2 I *D sky130_fd_sc_hd__a21boi_1
*I *174:Y O *D sky130_fd_sc_hd__nand2_1
*CAP
1 *176:A 0.000133953
2 *181:A2 4.18554e-05
3 *174:Y 0.000220907
4 *27:12 0.000396715
5 *176:A *177:B 3.17692e-05
6 *27:12 *175:A 2.01737e-05
7 *27:12 *175:B 2.70721e-05
8 *27:12 *28:6 4.77807e-05
9 *27:12 *33:10 0.000188374
10 *181:A1 *181:A2 1.9872e-05
11 *181:A1 *27:12 4.6368e-06
*RES
1 *174:Y *27:12 6.325 
2 *27:12 *181:A2 2.41 
3 *27:12 *176:A 7.955 
*END

*D_NET *28 0.000503488
*CONN
*I *181:B1_N I *D sky130_fd_sc_hd__a21boi_1
*I *176:B I *D sky130_fd_sc_hd__nand2_1
*I *175:X O *D sky130_fd_sc_hd__or2_1
*CAP
1 *181:B1_N 0
2 *176:B 0.000194725
3 *175:X 2.10669e-05
4 *28:6 0.000215792
5 *176:B *182:B 3.75882e-06
6 *176:B *33:10 2.03643e-05
7 *27:12 *28:6 4.77807e-05
*RES
1 *175:X *28:6 2.05 
2 *28:6 *176:B 8.645 
3 *28:6 *181:B1_N 1.6 
*END

*D_NET *29 0.000971508
*CONN
*I *177:B I *D sky130_fd_sc_hd__xor2_1
*I *176:Y O *D sky130_fd_sc_hd__nand2_1
*CAP
1 *177:B 0.000434445
2 *176:Y 0.000434445
3 *177:B *40:14 7.08493e-05
4 *176:A *177:B 3.17692e-05
*RES
1 *176:Y *177:B 13.5 
*END

*D_NET *30 0.00142962
*CONN
*I *183:A1 I *D sky130_fd_sc_hd__o21a_1
*I *180:A I *D sky130_fd_sc_hd__or2b_1
*I *178:X O *D sky130_fd_sc_hd__and2_1
*CAP
1 *183:A1 0.000136658
2 *180:A 0.000136722
3 *178:X 0.000154356
4 *30:12 0.000427736
5 *180:A *182:A 3.64632e-05
6 *180:A *182:B 4.77807e-05
7 *180:A *197:A 8.5243e-05
8 *183:A1 *182:B 0.000201237
9 *183:A1 *31:10 6.54361e-06
10 *30:12 *178:B 0.000117092
11 *30:12 *31:10 7.30593e-05
12 *30:12 *42:16 6.72833e-06
*RES
1 *178:X *30:12 6.66 
2 *30:12 *180:A 5.43 
3 *30:12 *183:A1 6.255 
*END

*D_NET *31 0.000769476
*CONN
*I *183:B1 I *D sky130_fd_sc_hd__o21a_1
*I *180:B_N I *D sky130_fd_sc_hd__or2b_1
*I *179:X O *D sky130_fd_sc_hd__or2_1
*CAP
1 *183:B1 7.0313e-05
2 *180:B_N 4.28337e-05
3 *179:X 0.000151885
4 *31:10 0.000265032
5 *180:B_N *182:A 4.77757e-05
6 *183:B1 *182:B 7.23237e-05
7 *31:10 *182:B 3.97106e-05
8 *183:A1 *31:10 6.54361e-06
9 *30:12 *31:10 7.30593e-05
*RES
1 *179:X *31:10 5.94 
2 *31:10 *180:B_N 4.41 
3 *31:10 *183:B1 5.235 
*END

*D_NET *32 0.000741431
*CONN
*I *182:A I *D sky130_fd_sc_hd__xnor2_1
*I *180:X O *D sky130_fd_sc_hd__or2b_1
*CAP
1 *182:A 0.000164608
2 *180:X 0.000164608
3 *182:A *182:B 9.26385e-05
4 *182:A *197:A 0.000235339
5 *180:A *182:A 3.64632e-05
6 *180:B_N *182:A 4.77757e-05
*RES
1 *180:X *182:A 7.115 
*END

*D_NET *33 0.00139022
*CONN
*I *183:A2 I *D sky130_fd_sc_hd__o21a_1
*I *182:B I *D sky130_fd_sc_hd__xnor2_1
*I *181:Y O *D sky130_fd_sc_hd__a21boi_1
*CAP
1 *183:A2 0
2 *182:B 0.000180797
3 *181:Y 0.000181218
4 *33:10 0.000362015
5 *176:B *182:B 3.75882e-06
6 *176:B *33:10 2.03643e-05
7 *180:A *182:B 4.77807e-05
8 *182:A *182:B 9.26385e-05
9 *183:A1 *182:B 0.000201237
10 *183:B1 *182:B 7.23237e-05
11 *27:12 *33:10 0.000188374
12 *31:10 *182:B 3.97106e-05
*RES
1 *181:Y *33:10 6.3 
2 *33:10 *182:B 8.265 
3 *33:10 *183:A2 3.6 
*END

*D_NET *34 0.0029191
*CONN
*I *166:B1 I *D sky130_fd_sc_hd__o21ai_2
*I *165:A I *D sky130_fd_sc_hd__xnor2_1
*I *184:X O *D sky130_fd_sc_hd__buf_1
*CAP
1 *166:B1 0.000173207
2 *165:A 0.00014975
3 *184:X 0.000511273
4 *34:10 0.00083423
5 *166:B1 *166:A2 9.12671e-06
6 *166:B1 *44:14 0.000195462
7 *34:10 *44:14 0.000905396
8 *169:B1 *166:B1 8.50369e-06
9 *169:B2 *166:B1 8.32197e-05
10 *20:14 *166:B1 4.89295e-05
*RES
1 *184:X *34:10 13.965 
2 *34:10 *165:A 5.775 
3 *34:10 *166:B1 7.86 
*END

*D_NET *35 0.00167566
*CONN
*I *193:A I *D sky130_fd_sc_hd__clkbuf_4
*I *183:X O *D sky130_fd_sc_hd__o21a_1
*CAP
1 *193:A 0.000726898
2 *183:X 0.000726898
3 *193:A *41:12 7.41023e-05
4 *185:A *193:A 0.000147759
*RES
1 *183:X *193:A 18.825 
*END

*D_NET *36 0.00150382
*CONN
*I *194:A I *D sky130_fd_sc_hd__clkbuf_4
*I *165:Y O *D sky130_fd_sc_hd__xnor2_1
*CAP
1 *194:A 0.000721927
2 *165:Y 0.000721927
3 sum[0] *194:A 2.69217e-05
4 *165:B *194:A 3.30434e-05
*RES
1 *165:Y *194:A 18.27 
*END

*D_NET *37 0.00220262
*CONN
*I *195:A I *D sky130_fd_sc_hd__clkbuf_4
*I *171:Y O *D sky130_fd_sc_hd__nand2_1
*CAP
1 *195:A 0.000564065
2 *171:Y 0.000564065
3 *195:A *196:A 0.00042293
4 *195:A *47:33 7.03219e-05
5 sum[1] *195:A 0.000160777
6 *170:A *195:A 8.52939e-05
7 *170:B *195:A 5.44377e-05
8 *170:C *195:A 0.000232955
9 *170:D *195:A 4.77757e-05
*RES
1 *171:Y *195:A 20.01 
*END

*D_NET *38 0.00297592
*CONN
*I *196:A I *D sky130_fd_sc_hd__clkbuf_4
*I *177:X O *D sky130_fd_sc_hd__xor2_1
*CAP
1 *196:A 0.00122566
2 *177:X 0.00122566
3 sum[1] *196:A 1.52352e-05
4 *192:A *196:A 8.64421e-05
5 *195:A *196:A 0.00042293
*RES
1 *177:X *196:A 27.615 
*END

*D_NET *39 0.00101909
*CONN
*I *197:A I *D sky130_fd_sc_hd__buf_2
*I *182:Y O *D sky130_fd_sc_hd__xnor2_1
*CAP
1 *197:A 0.000258042
2 *182:Y 0.000258042
3 *197:A *41:12 0.000182427
4 *180:A *197:A 8.5243e-05
5 *182:A *197:A 0.000235339
*RES
1 *182:Y *197:A 12.57 
*END

*D_NET *40 0.00335691
*CONN
*I *167:B I *D sky130_fd_sc_hd__nand2_1
*I *172:B I *D sky130_fd_sc_hd__nor2_1
*I *168:B I *D sky130_fd_sc_hd__or2_1
*I *185:X O *D sky130_fd_sc_hd__buf_1
*CAP
1 *167:B 1.55911e-05
2 *172:B 1.65753e-05
3 *168:B 0.000108887
4 *185:X 0.000903921
5 *40:16 0.000184487
6 *40:14 0.000978538
7 *40:14 *45:8 0.000284983
8 *40:16 *167:A 4.89395e-05
9 *164:B *168:B 4.66108e-05
10 *173:A1 *168:B 8.35118e-05
11 *173:A2 *168:B 8.23457e-05
12 *173:A3 *168:B 4.77719e-05
13 *173:B1 *168:B 7.65078e-05
14 *173:B1 *40:16 2.87688e-05
15 *177:B *40:14 7.08493e-05
16 *17:33 *168:B 2.01934e-05
17 *21:6 *40:16 8.53011e-05
18 *21:12 *168:B 8.5067e-05
19 *21:12 *40:16 3.6355e-05
20 *26:8 *40:14 0.000110017
21 *26:8 *40:16 4.16923e-05
*RES
1 *185:X *40:14 20.75 
2 *40:14 *40:16 1.83 
3 *40:16 *168:B 4.465 
4 *40:16 *172:B 1.96 
5 *40:14 *167:B 1.96 
*END

*D_NET *41 0.00205725
*CONN
*I *175:B I *D sky130_fd_sc_hd__or2_1
*I *174:B I *D sky130_fd_sc_hd__nand2_1
*I *186:X O *D sky130_fd_sc_hd__clkbuf_1
*CAP
1 *175:B 0.000142389
2 *174:B 0
3 *186:X 0.000656509
4 *41:12 0.000798898
5 *175:B *174:A 1.65221e-05
6 *41:12 *46:14 0.000159326
7 *193:A *41:12 7.41023e-05
8 *197:A *41:12 0.000182427
9 *27:12 *175:B 2.70721e-05
*RES
1 *186:X *41:12 17.57 
2 *41:12 *174:B 1.6 
3 *41:12 *175:B 3.97 
*END

*D_NET *42 0.00372161
*CONN
*I *178:B I *D sky130_fd_sc_hd__and2_1
*I *179:B I *D sky130_fd_sc_hd__or2_1
*I *187:X O *D sky130_fd_sc_hd__clkbuf_1
*CAP
1 *178:B 7.39154e-05
2 *179:B 0
3 *187:X 0.00162548
4 *42:16 0.0016994
5 *178:B *179:A 0.000198994
6 *30:12 *178:B 0.000117092
7 *30:12 *42:16 6.72833e-06
*RES
1 *187:X *42:16 28.34 
2 *42:16 *179:B 1.6 
3 *42:16 *178:B 4.12 
*END

*D_NET *43 0.00318776
*CONN
*I *162:A I *D sky130_fd_sc_hd__nand2_1
*I *166:A1 I *D sky130_fd_sc_hd__o21ai_2
*I *163:A I *D sky130_fd_sc_hd__or2_1
*I *188:X O *D sky130_fd_sc_hd__buf_1
*CAP
1 *162:A 0.000385445
2 *166:A1 0.000115989
3 *163:A 0
4 *188:X 0.000682037
5 *43:8 0.00118347
6 *162:A *44:14 0.000170236
7 *162:A *44:35 1.33205e-05
8 *166:A1 *166:A2 8.74199e-05
9 *166:A1 *44:14 0.000132827
10 *166:A1 *47:33 5.31158e-06
11 *164:B *162:A 2.59934e-06
12 *169:B2 *166:A1 7.27704e-06
13 *171:A *162:A 0.000132462
14 *17:21 *162:A 0.000231402
15 *17:33 *162:A 2.01934e-05
16 *22:8 *162:A 1.77665e-05
*RES
1 *188:X *43:8 9.22 
2 *43:8 *163:A 1.6 
3 *43:8 *166:A1 7.94 
4 *43:8 *162:A 12.455 
*END

*D_NET *44 0.00490335
*CONN
*I *167:A I *D sky130_fd_sc_hd__nand2_1
*I *172:A I *D sky130_fd_sc_hd__nor2_1
*I *168:A I *D sky130_fd_sc_hd__or2_1
*I *189:X O *D sky130_fd_sc_hd__buf_1
*CAP
1 *167:A 1.00647e-05
2 *172:A 0
3 *168:A 0
4 *189:X 0.000990684
5 *44:35 0.000572846
6 *44:14 0.00155346
7 *162:A *44:14 0.000170236
8 *162:A *44:35 1.33205e-05
9 *164:B *44:14 0.000159702
10 *164:B *44:35 3.75126e-05
11 *166:A1 *44:14 0.000132827
12 *166:B1 *44:14 0.000195462
13 *169:B2 *44:14 6.80167e-05
14 *17:33 *44:35 1.79536e-05
15 *26:8 *167:A 2.69217e-05
16 *34:10 *44:14 0.000905396
17 *40:16 *167:A 4.89395e-05
*RES
1 *189:X *44:14 26.36 
2 *44:14 *168:A 1.6 
3 *44:14 *44:35 6.59393 
4 *44:35 *172:A 1.6 
5 *44:35 *167:A 2.05 
*END

*D_NET *45 0.00130558
*CONN
*I *175:A I *D sky130_fd_sc_hd__or2_1
*I *174:A I *D sky130_fd_sc_hd__nand2_1
*I *190:X O *D sky130_fd_sc_hd__clkbuf_1
*CAP
1 *175:A 2.57801e-05
2 *174:A 0.000116588
3 *190:X 0.000349581
4 *45:8 0.000491949
5 *175:B *174:A 1.65221e-05
6 *27:12 *175:A 2.01737e-05
7 *40:14 *45:8 0.000284983
*RES
1 *190:X *45:8 10.845 
2 *45:8 *174:A 4.9875 
3 *45:8 *175:A 4.05 
*END

*D_NET *46 0.00116278
*CONN
*I *178:A I *D sky130_fd_sc_hd__and2_1
*I *179:A I *D sky130_fd_sc_hd__or2_1
*I *191:X O *D sky130_fd_sc_hd__clkbuf_1
*CAP
1 *178:A 0
2 *179:A 0.000159253
3 *191:X 0.000240624
4 *46:14 0.000399877
5 *178:B *179:A 0.000198994
6 *191:A *46:14 4.7072e-06
7 *41:12 *46:14 0.000159326
*RES
1 *191:X *46:14 9.92 
2 *46:14 *179:A 4.48 
3 *46:14 *178:A 1.6 
*END

*D_NET *47 0.00283674
*CONN
*I *163:B I *D sky130_fd_sc_hd__or2_1
*I *166:A2 I *D sky130_fd_sc_hd__o21ai_2
*I *162:B I *D sky130_fd_sc_hd__nand2_1
*I *192:X O *D sky130_fd_sc_hd__buf_1
*CAP
1 *163:B 0
2 *166:A2 0.000202068
3 *162:B 0.000160948
4 *192:X 0.000163705
5 *47:33 0.000999998
6 *47:12 0.00112258
7 *166:A1 *166:A2 8.74199e-05
8 *166:A1 *47:33 5.31158e-06
9 *166:B1 *166:A2 9.12671e-06
10 *169:B2 *166:A2 1.26044e-05
11 *170:C *162:B 2.65814e-06
12 *195:A *47:33 7.03219e-05
*RES
1 *192:X *47:12 6.3 
2 *47:12 *162:B 5.88 
3 *47:12 *47:33 13.99 
4 *47:33 *166:A2 6.735 
5 *47:33 *163:B 3.6 
*END
