*SPEF "ieee 1481-1999"
*DESIGN "rca_4bit"
*DATE "11:11:11 Fri 11 11, 1111"
*VENDOR "OpenRCX"
*PROGRAM "Parallel Extraction"
*VERSION "1.0"
*DESIGN_FLOW "NAME_SCOPE LOCAL" "PIN_CAP NONE"
*DIVIDER /
*DELIMITER :
*BUS_DELIMITER []
*T_UNIT 1 NS
*C_UNIT 1 PF
*R_UNIT 1 OHM
*L_UNIT 1 HENRY

*NAME_MAP
*3 a[0]
*4 a[1]
*5 a[2]
*6 a[3]
*7 b[0]
*8 b[1]
*9 b[2]
*10 b[3]
*11 cin
*12 cout
*13 sum[0]
*14 sum[1]
*15 sum[2]
*16 sum[3]
*17 _00_
*18 _01_
*19 _02_
*20 _03_
*21 _04_
*22 _05_
*23 _06_
*24 _07_
*25 _08_
*26 _09_
*27 _10_
*28 _11_
*29 _12_
*30 _13_
*31 _14_
*32 _15_
*33 _16_
*34 net1
*35 net10
*36 net11
*37 net12
*38 net13
*39 net14
*40 net2
*41 net3
*42 net4
*43 net5
*44 net6
*45 net7
*46 net8
*47 net9
*48 FILLER_0_0_14
*49 FILLER_0_0_20
*50 FILLER_0_0_29
*51 FILLER_0_0_41
*52 FILLER_0_0_51
*53 FILLER_0_0_55
*54 FILLER_0_0_57
*55 FILLER_0_0_6
*56 FILLER_0_0_69
*57 FILLER_0_1_18
*58 FILLER_0_1_30
*59 FILLER_0_1_42
*60 FILLER_0_1_54
*61 FILLER_0_1_57
*62 FILLER_0_1_6
*63 FILLER_0_1_69
*64 FILLER_0_2_15
*65 FILLER_0_2_27
*66 FILLER_0_2_29
*67 FILLER_0_2_3
*68 FILLER_0_2_41
*69 FILLER_0_2_53
*70 FILLER_0_2_65
*71 FILLER_0_2_76
*72 FILLER_0_2_80
*73 FILLER_0_3_15
*74 FILLER_0_3_27
*75 FILLER_0_3_3
*76 FILLER_0_3_39
*77 FILLER_0_3_51
*78 FILLER_0_3_55
*79 FILLER_0_3_57
*80 FILLER_0_3_76
*81 FILLER_0_3_80
*82 FILLER_0_4_15
*83 FILLER_0_4_27
*84 FILLER_0_4_29
*85 FILLER_0_4_3
*86 FILLER_0_4_38
*87 FILLER_0_4_50
*88 FILLER_0_4_58
*89 FILLER_0_4_63
*90 FILLER_0_4_72
*91 FILLER_0_4_76
*92 FILLER_0_5_15
*93 FILLER_0_5_23
*94 FILLER_0_5_3
*95 FILLER_0_5_41
*96 FILLER_0_5_53
*97 FILLER_0_5_57
*98 FILLER_0_5_73
*99 FILLER_0_6_18
*100 FILLER_0_6_22
*101 FILLER_0_6_47
*102 FILLER_0_6_56
*103 FILLER_0_6_6
*104 FILLER_0_6_68
*105 FILLER_0_6_80
*106 FILLER_0_7_15
*107 FILLER_0_7_27
*108 FILLER_0_7_3
*109 FILLER_0_7_40
*110 FILLER_0_7_52
*111 FILLER_0_7_57
*112 FILLER_0_7_69
*113 FILLER_0_8_15
*114 FILLER_0_8_27
*115 FILLER_0_8_29
*116 FILLER_0_8_3
*117 FILLER_0_8_41
*118 FILLER_0_8_53
*119 FILLER_0_8_65
*120 FILLER_0_8_77
*121 FILLER_0_9_15
*122 FILLER_0_9_27
*123 FILLER_0_9_29
*124 FILLER_0_9_37
*125 FILLER_0_9_41
*126 FILLER_0_9_53
*127 FILLER_0_9_57
*128 FILLER_0_9_65
*129 FILLER_0_9_69
*130 PHY_0
*131 PHY_1
*132 PHY_10
*133 PHY_11
*134 PHY_12
*135 PHY_13
*136 PHY_14
*137 PHY_15
*138 PHY_16
*139 PHY_17
*140 PHY_18
*141 PHY_19
*142 PHY_2
*143 PHY_3
*144 PHY_4
*145 PHY_5
*146 PHY_6
*147 PHY_7
*148 PHY_8
*149 PHY_9
*150 TAP_20
*151 TAP_21
*152 TAP_22
*153 TAP_23
*154 TAP_24
*155 TAP_25
*156 TAP_26
*157 TAP_27
*158 TAP_28
*159 TAP_29
*160 TAP_30
*161 TAP_31
*162 _17_
*163 _18_
*164 _19_
*165 _20_
*166 _21_
*167 _22_
*168 _23_
*169 _24_
*170 _25_
*171 _26_
*172 _27_
*173 _28_
*174 _29_
*175 _30_
*176 _31_
*177 _32_
*178 _33_
*179 _34_
*180 _35_
*181 _36_
*182 _37_
*183 _38_
*184 input1
*185 input2
*186 input3
*187 input4
*188 input5
*189 input6
*190 input7
*191 input8
*192 input9
*193 output10
*194 output11
*195 output12
*196 output13
*197 output14

*PORTS
a[0] I
a[1] I
a[2] I
a[3] I
b[0] I
b[1] I
b[2] I
b[3] I
cin I
cout O
sum[0] O
sum[1] O
sum[2] O
sum[3] O

*D_NET *3 0.000997889
*CONN
*P a[0] I
*I *184:A I *D sky130_fd_sc_hd__buf_1
*CAP
1 a[0] 0.000498944
2 *184:A 0.000498944
*RES
1 a[0] *184:A 48.7093 
*END

*D_NET *4 0.0014986
*CONN
*P a[1] I
*I *185:A I *D sky130_fd_sc_hd__buf_1
*CAP
1 a[1] 0.000658131
2 *185:A 0
3 *4:15 0.000658131
4 *4:15 *35:12 0.000182335
*RES
1 a[1] *4:15 28.5208 
2 *4:15 *185:A 23 
*END

*D_NET *5 0.00110517
*CONN
*P a[2] I
*I *186:A I *D sky130_fd_sc_hd__clkbuf_1
*CAP
1 a[2] 0.000409154
2 *186:A 0.000409154
3 *186:A *10:15 0.000286867
*RES
1 a[2] *186:A 48.7093 
*END

*D_NET *6 0.00059788
*CONN
*P a[3] I
*I *187:A I *D sky130_fd_sc_hd__clkbuf_1
*CAP
1 a[3] 0.00029894
2 *187:A 0
3 *6:13 0.00029894
4 *6:13 *8:9 0
*RES
1 a[3] *6:13 27.2332 
2 *6:13 *187:A 23 
*END

*D_NET *7 0.000551974
*CONN
*P b[0] I
*I *188:A I *D sky130_fd_sc_hd__buf_1
*CAP
1 b[0] 0.000275987
2 *188:A 0.000275987
*RES
1 b[0] *188:A 47.7832 
*END

*D_NET *8 0.00149532
*CONN
*P b[1] I
*I *189:A I *D sky130_fd_sc_hd__buf_1
*CAP
1 b[1] 0.000747661
2 *189:A 0
3 *8:9 0.000747661
4 *6:13 *8:9 0
*RES
1 b[1] *8:9 30.9914 
2 *8:9 *189:A 23 
*END

*D_NET *9 0.00100582
*CONN
*P b[2] I
*I *190:A I *D sky130_fd_sc_hd__clkbuf_1
*CAP
1 b[2] 0.000502911
2 *190:A 0.000502911
*RES
1 b[2] *190:A 48.875 
*END

*D_NET *10 0.00157658
*CONN
*P b[3] I
*I *191:A I *D sky130_fd_sc_hd__clkbuf_1
*CAP
1 b[3] 0.000642401
2 *191:A 0
3 *10:15 0.000642401
4 *10:15 *46:10 4.91172e-06
5 *186:A *10:15 0.000286867
*RES
1 b[3] *10:15 33.6403 
2 *10:15 *191:A 23 
*END

*D_NET *11 0.00118747
*CONN
*P cin I
*I *192:A I *D sky130_fd_sc_hd__buf_1
*CAP
1 cin 0.00054254
2 *192:A 0.00054254
3 *192:A *38:14 0.000102389
*RES
1 cin *192:A 49.9729 
*END

*D_NET *12 0.00162785
*CONN
*P cout O
*I *193:X O *D sky130_fd_sc_hd__clkbuf_4
*CAP
1 cout 0.000419051
2 *193:X 0.000394875
3 *12:8 0.000813926
*RES
1 *193:X *12:8 44.815 
2 *12:8 cout 9.40429 
*END

*D_NET *13 0.00114174
*CONN
*P sum[0] O
*I *194:X O *D sky130_fd_sc_hd__clkbuf_4
*CAP
1 sum[0] 0.000556096
2 *194:X 0.000556096
3 sum[0] *36:14 2.95526e-05
*RES
1 *194:X sum[0] 48.8129 
*END

*D_NET *14 0.00271594
*CONN
*P sum[1] O
*I *195:X O *D sky130_fd_sc_hd__clkbuf_4
*CAP
1 sum[1] 0.000658
2 *195:X 0.000601735
3 *14:10 0.00125974
4 *14:10 *195:A 0.000180558
5 *14:10 *38:14 1.59071e-05
*RES
1 *195:X *14:10 49.3204 
2 *14:10 sum[1] 10.2176 
*END

*D_NET *15 0.00105581
*CONN
*P sum[2] O
*I *196:X O *D sky130_fd_sc_hd__clkbuf_4
*CAP
1 sum[2] 0.000527907
2 *196:X 0.000527907
*RES
1 *196:X sum[2] 48.5021 
*END

*D_NET *16 0.000822331
*CONN
*P sum[3] O
*I *197:X O *D sky130_fd_sc_hd__buf_2
*CAP
1 sum[3] 0.000121316
2 *197:X 0.000289849
3 *16:10 0.000411165
*RES
1 *197:X *16:10 42.2568 
2 *16:10 sum[3] 8.4144 
*END

*D_NET *17 0.00275427
*CONN
*I *173:A1 I *D sky130_fd_sc_hd__a31o_1
*I *169:A1 I *D sky130_fd_sc_hd__a22o_1
*I *164:A I *D sky130_fd_sc_hd__nand2_1
*I *170:A I *D sky130_fd_sc_hd__nand4_1
*I *162:Y O *D sky130_fd_sc_hd__nand2_1
*CAP
1 *173:A1 5.47197e-05
2 *169:A1 0
3 *164:A 6.59188e-05
4 *170:A 0.000125432
5 *162:Y 0
6 *17:33 0.000275773
7 *17:21 0.000439611
8 *17:4 0.000300469
9 *164:A *164:B 0.000107572
10 *164:A *21:50 0.000229652
11 *170:A *170:C 6.08617e-05
12 *170:A *171:B 5.81185e-05
13 *170:A *37:14 0.000100311
14 *173:A1 *168:B 9.66585e-05
15 *173:A1 *173:B1 5.3304e-05
16 *17:21 *170:C 0.000110184
17 *17:21 *173:B1 0.000140935
18 *17:21 *23:10 1.03972e-05
19 *17:21 *43:38 0.000274346
20 *17:33 *168:B 2.19403e-05
21 *17:33 *170:B 3.02888e-05
22 *17:33 *18:10 8.50366e-05
23 *17:33 *20:14 4.18161e-05
24 *17:33 *20:23 2.78671e-05
25 *17:33 *43:38 2.19403e-05
26 *17:33 *44:35 2.11157e-05
*RES
1 *162:Y *17:4 23 
2 *17:4 *170:A 25.5271 
3 *17:4 *17:21 34.8057 
4 *17:21 *17:33 34.35 
5 *17:33 *164:A 26.045 
6 *17:33 *169:A1 23 
7 *17:21 *173:A1 24.595 
*END

*D_NET *18 0.00158497
*CONN
*I *164:B I *D sky130_fd_sc_hd__nand2_1
*I *163:X O *D sky130_fd_sc_hd__or2_1
*CAP
1 *164:B 0.000175106
2 *163:X 0.000287707
3 *18:10 0.000462814
4 *164:B *169:B2 3.23857e-06
5 *164:B *21:50 3.18142e-05
6 *164:B *23:10 5.79559e-05
7 *18:10 *168:B 5.3304e-05
8 *18:10 *20:23 8.57485e-05
9 *18:10 *43:38 2.38387e-06
10 *18:10 *44:14 0.000187856
11 *18:10 *44:35 4.44329e-05
12 *164:A *164:B 0.000107572
13 *17:33 *18:10 8.50366e-05
*RES
1 *163:X *18:10 42.6814 
2 *18:10 *164:B 41.9979 
*END

*D_NET *19 0.000523311
*CONN
*I *165:B I *D sky130_fd_sc_hd__xnor2_1
*I *164:Y O *D sky130_fd_sc_hd__nand2_1
*CAP
1 *165:B 0.000161981
2 *164:Y 8.26915e-05
3 *19:8 0.000244673
4 *165:B *36:8 3.39646e-05
*RES
1 *164:Y *19:8 39.2014 
2 *19:8 *165:B 41.3764 
*END

*D_NET *20 0.00277027
*CONN
*I *170:B I *D sky130_fd_sc_hd__nand4_1
*I *173:A2 I *D sky130_fd_sc_hd__a31o_1
*I *169:A2 I *D sky130_fd_sc_hd__a22o_1
*I *166:Y O *D sky130_fd_sc_hd__o21ai_2
*CAP
1 *170:B 0.000469274
2 *173:A2 0
3 *169:A2 0
4 *166:Y 0.000264215
5 *20:33 0.000134507
6 *20:23 0.000678355
7 *20:14 0.000338791
8 *170:B *171:B 6.58043e-05
9 *170:B *23:10 0.000239015
10 *170:B *37:14 6.28714e-05
11 *20:14 *166:B1 5.79559e-05
12 *20:14 *169:B2 1.59071e-05
13 *20:23 *23:10 8.57485e-05
14 *20:33 *168:B 9.41704e-05
15 *20:33 *21:12 2.2324e-05
16 *20:33 *23:10 5.56164e-05
17 *17:33 *170:B 3.02888e-05
18 *17:33 *20:14 4.18161e-05
19 *17:33 *20:23 2.78671e-05
20 *18:10 *20:23 8.57485e-05
*RES
1 *166:Y *20:14 42.1429 
2 *20:14 *169:A2 38 
3 *20:14 *20:23 1.90571 
4 *20:23 *20:33 46.9471 
5 *20:33 *173:A2 23 
6 *20:23 *170:B 45.2086 
*END

*D_NET *21 0.00357121
*CONN
*I *169:B1 I *D sky130_fd_sc_hd__a22o_1
*I *170:C I *D sky130_fd_sc_hd__nand4_1
*I *173:A3 I *D sky130_fd_sc_hd__a31o_1
*I *167:Y O *D sky130_fd_sc_hd__nand2_1
*CAP
1 *169:B1 0
2 *170:C 0.000552149
3 *173:A3 1.56031e-05
4 *167:Y 6.18408e-05
5 *21:50 0.000427473
6 *21:12 0.000737629
7 *21:6 0.00065919
8 *170:C *162:B 2.45549e-06
9 *170:C *170:D 1.3523e-05
10 *170:C *23:10 8.31823e-06
11 *170:C *37:14 0.000271353
12 *173:A3 *168:B 5.56279e-05
13 *173:A3 *173:B1 5.56279e-05
14 *21:6 *40:16 0.000100486
15 *21:12 *168:B 9.96505e-05
16 *21:12 *40:16 4.21048e-05
17 *21:50 *166:B1 7.86509e-06
18 *21:50 *169:B2 5.47983e-06
19 *164:A *21:50 0.000229652
20 *164:B *21:50 3.18142e-05
21 *170:A *170:C 6.08617e-05
22 *17:21 *170:C 0.000110184
23 *20:33 *21:12 2.2324e-05
*RES
1 *167:Y *21:6 24.0979 
2 *21:6 *21:12 17.4236 
3 *21:12 *173:A3 38.6214 
4 *21:12 *170:C 47.135 
5 *21:6 *21:50 38.0371 
6 *21:50 *169:B1 23 
*END

*D_NET *22 0.0013966
*CONN
*I *170:D I *D sky130_fd_sc_hd__nand4_1
*I *169:B2 I *D sky130_fd_sc_hd__a22o_1
*I *168:X O *D sky130_fd_sc_hd__or2_1
*CAP
1 *170:D 0.000180274
2 *169:B2 0.000319493
3 *168:X 4.84653e-05
4 *22:8 0.000548232
5 *169:B2 *166:A2 1.34966e-05
6 *169:B2 *166:B1 9.62713e-05
7 *169:B2 *43:21 6.5117e-06
8 *169:B2 *44:14 7.17279e-05
9 *170:D *37:14 5.56356e-05
10 *22:8 *43:38 1.83408e-05
11 *164:B *169:B2 3.23857e-06
12 *170:C *170:D 1.3523e-05
13 *20:14 *169:B2 1.59071e-05
14 *21:50 *169:B2 5.47983e-06
*RES
1 *168:X *22:8 38.6214 
2 *22:8 *169:B2 44.235 
3 *22:8 *170:D 40.8793 
*END

*D_NET *23 0.00115417
*CONN
*I *171:A I *D sky130_fd_sc_hd__nand2_1
*I *169:X O *D sky130_fd_sc_hd__a22o_1
*CAP
1 *171:A 0
2 *169:X 0.000268102
3 *23:10 0.000268102
4 *23:10 *43:38 0.000160915
5 *164:B *23:10 5.79559e-05
6 *170:B *23:10 0.000239015
7 *170:C *23:10 8.31823e-06
8 *17:21 *23:10 1.03972e-05
9 *20:23 *23:10 8.57485e-05
10 *20:33 *23:10 5.56164e-05
*RES
1 *169:X *23:10 43.6964 
2 *23:10 *171:A 38 
*END

*D_NET *24 0.00021857
*CONN
*I *171:B I *D sky130_fd_sc_hd__nand2_1
*I *170:Y O *D sky130_fd_sc_hd__nand4_1
*CAP
1 *171:B 4.73236e-05
2 *170:Y 4.73236e-05
3 *170:A *171:B 5.81185e-05
4 *170:B *171:B 6.58043e-05
*RES
1 *170:Y *171:B 47.4707 
*END

*D_NET *25 0.000690931
*CONN
*I *173:B1 I *D sky130_fd_sc_hd__a31o_1
*I *172:Y O *D sky130_fd_sc_hd__nor2_1
*CAP
1 *173:B1 0.000111148
2 *172:Y 0.000111148
3 *173:B1 *168:B 8.38007e-05
4 *173:B1 *26:8 0.000102551
5 *173:B1 *40:16 3.24148e-05
6 *173:A1 *173:B1 5.3304e-05
7 *173:A3 *173:B1 5.56279e-05
8 *17:21 *173:B1 0.000140935
*RES
1 *172:Y *173:B1 49.48 
*END

*D_NET *26 0.00183141
*CONN
*I *177:A I *D sky130_fd_sc_hd__xor2_1
*I *181:A1 I *D sky130_fd_sc_hd__a21boi_1
*I *173:X O *D sky130_fd_sc_hd__a31o_1
*CAP
1 *177:A 0
2 *181:A1 0
3 *173:X 0.000337129
4 *26:16 0.000420664
5 *26:8 0.000757793
6 *26:8 *167:A 2.95526e-05
7 *26:8 *40:14 0.000114624
8 *26:8 *40:16 4.35038e-05
9 *26:16 *181:A2 2.07484e-05
10 *26:16 *27:12 4.84129e-06
11 *173:B1 *26:8 0.000102551
*RES
1 *173:X *26:8 30.1879 
2 *26:8 *26:16 35.3857 
3 *26:16 *181:A1 23 
4 *26:8 *177:A 23 
*END

*D_NET *27 0.00134441
*CONN
*I *176:A I *D sky130_fd_sc_hd__nand2_1
*I *181:A2 I *D sky130_fd_sc_hd__a21boi_1
*I *174:Y O *D sky130_fd_sc_hd__nand2_1
*CAP
1 *176:A 0
2 *181:A2 4.96227e-05
3 *174:Y 0.000261855
4 *27:31 0.000172207
5 *27:12 0.000483684
6 *27:12 *175:A 2.10502e-05
7 *27:12 *175:B 2.5059e-05
8 *27:12 *28:6 5.58003e-05
9 *27:12 *33:10 0.000220881
10 *27:31 *29:10 2.8661e-05
11 *26:16 *181:A2 2.07484e-05
12 *26:16 *27:12 4.84129e-06
*RES
1 *174:Y *27:12 29.525 
2 *27:12 *181:A2 24.1186 
3 *27:12 *27:31 33.2521 
4 *27:31 *176:A 23 
*END

*D_NET *28 0.000604776
*CONN
*I *181:B1_N I *D sky130_fd_sc_hd__a21boi_1
*I *176:B I *D sky130_fd_sc_hd__nand2_1
*I *175:X O *D sky130_fd_sc_hd__or2_1
*CAP
1 *181:B1_N 0
2 *176:B 0
3 *175:X 2.75475e-05
4 *28:16 0.00023622
5 *28:6 0.000263767
6 *28:16 *182:B 3.50862e-06
7 *28:16 *33:10 1.79317e-05
8 *27:12 *28:6 5.58003e-05
*RES
1 *175:X *28:6 23.6214 
2 *28:6 *28:16 34.205 
3 *28:16 *176:B 23 
4 *28:6 *181:B1_N 23 
*END

*D_NET *29 0.00117103
*CONN
*I *177:B I *D sky130_fd_sc_hd__xor2_1
*I *176:Y O *D sky130_fd_sc_hd__nand2_1
*CAP
1 *177:B 6.92339e-05
2 *176:Y 0.000462596
3 *29:10 0.00053183
4 *177:B *40:14 7.87147e-05
5 *27:31 *29:10 2.8661e-05
*RES
1 *176:Y *29:10 45.1257 
2 *29:10 *177:B 39.5743 
*END

*D_NET *30 0.00174567
*CONN
*I *183:A1 I *D sky130_fd_sc_hd__o21a_1
*I *180:A I *D sky130_fd_sc_hd__or2b_1
*I *178:X O *D sky130_fd_sc_hd__and2_1
*CAP
1 *183:A1 0.000172996
2 *180:A 0.000171227
3 *178:X 0.000193669
4 *30:12 0.000537892
5 *180:A *182:B 5.58003e-05
6 *180:A *32:8 4.07675e-05
7 *180:A *39:12 9.99786e-05
8 *183:A1 *182:B 0.000248314
9 *183:A1 *31:10 5.71002e-06
10 *30:12 *178:B 0.00013214
11 *30:12 *31:10 7.95583e-05
12 *30:12 *42:16 7.61229e-06
*RES
1 *178:X *30:12 42.2257 
2 *30:12 *180:A 40.5271 
3 *30:12 *183:A1 41.6664 
*END

*D_NET *31 0.000968482
*CONN
*I *183:B1 I *D sky130_fd_sc_hd__o21a_1
*I *180:B_N I *D sky130_fd_sc_hd__or2b_1
*I *179:X O *D sky130_fd_sc_hd__or2_1
*CAP
1 *183:B1 8.71859e-05
2 *180:B_N 5.17002e-05
3 *179:X 0.000215181
4 *31:10 0.000354068
5 *180:B_N *32:8 5.56356e-05
6 *183:B1 *182:B 7.73177e-05
7 *31:10 *182:B 4.21252e-05
8 *183:A1 *31:10 5.71002e-06
9 *30:12 *31:10 7.95583e-05
*RES
1 *179:X *31:10 41.2314 
2 *31:10 *180:B_N 39.1186 
3 *31:10 *183:B1 40.2579 
*END

*D_NET *32 0.000882957
*CONN
*I *182:A I *D sky130_fd_sc_hd__xnor2_1
*I *180:X O *D sky130_fd_sc_hd__or2b_1
*CAP
1 *182:A 0
2 *180:X 0.000200408
3 *32:8 0.000200408
4 *32:8 *182:B 0.000107938
5 *32:8 *39:12 0.0002778
6 *180:A *32:8 4.07675e-05
7 *180:B_N *32:8 5.56356e-05
*RES
1 *180:X *32:8 28.4064 
2 *32:8 *182:A 23 
*END

*D_NET *33 0.00169367
*CONN
*I *183:A2 I *D sky130_fd_sc_hd__o21a_1
*I *182:B I *D sky130_fd_sc_hd__xnor2_1
*I *181:Y O *D sky130_fd_sc_hd__a21boi_1
*CAP
1 *183:A2 0
2 *182:B 0.000227323
3 *181:Y 0.000232606
4 *33:10 0.000459929
5 *180:A *182:B 5.58003e-05
6 *183:A1 *182:B 0.000248314
7 *183:B1 *182:B 7.73177e-05
8 *27:12 *33:10 0.000220881
9 *28:16 *182:B 3.50862e-06
10 *28:16 *33:10 1.79317e-05
11 *31:10 *182:B 4.21252e-05
12 *32:8 *182:B 0.000107938
*RES
1 *181:Y *33:10 41.7286 
2 *33:10 *182:B 44.4421 
3 *33:10 *183:A2 38 
*END

*D_NET *34 0.0035474
*CONN
*I *166:B1 I *D sky130_fd_sc_hd__o21ai_2
*I *165:A I *D sky130_fd_sc_hd__xnor2_1
*I *184:X O *D sky130_fd_sc_hd__buf_1
*CAP
1 *166:B1 0.000218088
2 *165:A 0.000169875
3 *184:X 0.000249719
4 *34:10 0.000763317
5 *34:8 0.000625072
6 *166:B1 *166:A2 1.12796e-05
7 *166:B1 *44:14 0.000242345
8 *34:8 *44:8 0.000323738
9 *34:10 *44:14 0.00078187
10 *169:B2 *166:B1 9.62713e-05
11 *20:14 *166:B1 5.79559e-05
12 *21:50 *166:B1 7.86509e-06
*RES
1 *184:X *34:8 41.9564 
2 *34:8 *34:10 10.3571 
3 *34:10 *165:A 41.0036 
4 *34:10 *166:B1 43.8829 
*END

*D_NET *35 0.00198919
*CONN
*I *193:A I *D sky130_fd_sc_hd__clkbuf_4
*I *183:X O *D sky130_fd_sc_hd__o21a_1
*CAP
1 *193:A 0
2 *183:X 0.000196241
3 *35:12 0.000667946
4 *35:8 0.000864187
5 *35:12 *41:12 7.84832e-05
6 *4:15 *35:12 0.000182335
*RES
1 *183:X *35:8 40.5271 
2 *35:8 *35:12 28.5264 
3 *35:12 *193:A 23 
*END

*D_NET *36 0.00176672
*CONN
*I *194:A I *D sky130_fd_sc_hd__clkbuf_4
*I *165:Y O *D sky130_fd_sc_hd__xnor2_1
*CAP
1 *194:A 0
2 *165:Y 0.000193162
3 *36:14 0.00065844
4 *36:8 0.000851602
5 sum[0] *36:14 2.95526e-05
6 *165:B *36:8 3.39646e-05
*RES
1 *165:Y *36:8 40.5271 
2 *36:8 *36:14 27.76 
3 *36:14 *194:A 23 
*END

*D_NET *37 0.00261114
*CONN
*I *195:A I *D sky130_fd_sc_hd__clkbuf_4
*I *171:Y O *D sky130_fd_sc_hd__nand2_1
*CAP
1 *195:A 0.000396539
2 *171:Y 0.000280311
3 *37:14 0.00067685
4 *195:A *38:14 0.000500964
5 *195:A *47:33 8.57485e-05
6 *170:A *37:14 0.000100311
7 *170:B *37:14 6.28714e-05
8 *170:C *37:14 0.000271353
9 *170:D *37:14 5.56356e-05
10 *14:10 *195:A 0.000180558
*RES
1 *171:Y *37:14 45.2293 
2 *37:14 *195:A 48.4607 
*END

*D_NET *38 0.00342134
*CONN
*I *196:A I *D sky130_fd_sc_hd__clkbuf_4
*I *177:X O *D sky130_fd_sc_hd__xor2_1
*CAP
1 *196:A 0
2 *177:X 0.000407185
3 *38:14 0.000993854
4 *38:8 0.00140104
5 *192:A *38:14 0.000102389
6 *195:A *38:14 0.000500964
7 *14:10 *38:14 1.59071e-05
*RES
1 *177:X *38:8 45.54 
2 *38:8 *38:14 35.6521 
3 *38:14 *196:A 23 
*END

*D_NET *39 0.00124783
*CONN
*I *197:A I *D sky130_fd_sc_hd__buf_2
*I *182:Y O *D sky130_fd_sc_hd__xnor2_1
*CAP
1 *197:A 0
2 *182:Y 0.000321981
3 *39:12 0.000321981
4 *39:12 *41:12 0.000226087
5 *180:A *39:12 9.99786e-05
6 *32:8 *39:12 0.0002778
*RES
1 *182:Y *39:12 45.4157 
2 *39:12 *197:A 38 
*END

*D_NET *40 0.00401703
*CONN
*I *167:B I *D sky130_fd_sc_hd__nand2_1
*I *172:B I *D sky130_fd_sc_hd__nor2_1
*I *168:B I *D sky130_fd_sc_hd__or2_1
*I *185:X O *D sky130_fd_sc_hd__buf_1
*CAP
1 *167:B 1.72643e-05
2 *172:B 1.89692e-05
3 *168:B 0.000160922
4 *185:X 0.000424379
5 *40:16 0.000253029
6 *40:14 0.000763951
7 *40:10 0.00109793
8 *40:10 *45:8 0.000305296
9 *40:16 *167:A 5.82853e-05
10 *173:A1 *168:B 9.66585e-05
11 *173:A3 *168:B 5.56279e-05
12 *173:B1 *168:B 8.38007e-05
13 *173:B1 *40:16 3.24148e-05
14 *177:B *40:14 7.87147e-05
15 *17:33 *168:B 2.19403e-05
16 *18:10 *168:B 5.3304e-05
17 *20:33 *168:B 9.41704e-05
18 *21:6 *40:16 0.000100486
19 *21:12 *168:B 9.96505e-05
20 *21:12 *40:16 4.21048e-05
21 *26:8 *40:14 0.000114624
22 *26:8 *40:16 4.35038e-05
*RES
1 *185:X *40:10 47.3421 
2 *40:10 *40:14 26.5793 
3 *40:14 *40:16 2.52714 
4 *40:16 *168:B 26.9564 
5 *40:16 *172:B 23.4971 
6 *40:14 *167:B 23.4971 
*END

*D_NET *41 0.0024959
*CONN
*I *175:B I *D sky130_fd_sc_hd__or2_1
*I *174:B I *D sky130_fd_sc_hd__nand2_1
*I *186:X O *D sky130_fd_sc_hd__clkbuf_1
*CAP
1 *175:B 0.000173283
2 *174:B 0
3 *186:X 0
4 *41:12 0.000988698
5 *41:6 0.000815415
6 *175:B *174:A 1.90877e-05
7 *41:12 *46:10 0.000169784
8 *27:12 *175:B 2.5059e-05
9 *35:12 *41:12 7.84832e-05
10 *39:12 *41:12 0.000226087
*RES
1 *186:X *41:6 38 
2 *41:6 *41:12 31.53 
3 *41:12 *174:B 23 
4 *41:12 *175:B 26.2729 
*END

*D_NET *42 0.00426924
*CONN
*I *178:B I *D sky130_fd_sc_hd__and2_1
*I *179:B I *D sky130_fd_sc_hd__or2_1
*I *187:X O *D sky130_fd_sc_hd__clkbuf_1
*CAP
1 *178:B 8.40727e-05
2 *179:B 0
3 *187:X 9.24516e-05
4 *42:16 0.00185424
5 *42:8 0.00186262
6 *178:B *179:A 0.000236102
7 *30:12 *178:B 0.00013214
8 *30:12 *42:16 7.61229e-06
*RES
1 *187:X *42:8 39.5536 
2 *42:8 *42:16 44.8493 
3 *42:16 *179:B 23 
4 *42:16 *178:B 26.48 
*END

*D_NET *43 0.00391957
*CONN
*I *162:A I *D sky130_fd_sc_hd__nand2_1
*I *166:A1 I *D sky130_fd_sc_hd__o21ai_2
*I *163:A I *D sky130_fd_sc_hd__or2_1
*I *188:X O *D sky130_fd_sc_hd__buf_1
*CAP
1 *162:A 0
2 *166:A1 0
3 *163:A 0
4 *188:X 0.000804894
5 *43:38 0.000496576
6 *43:21 0.000181129
7 *43:8 0.0014826
8 *43:21 *166:A2 9.31273e-05
9 *43:21 *44:14 0.000162263
10 *43:21 *47:33 5.75756e-06
11 *43:38 *44:14 0.000196452
12 *43:38 *44:35 1.23293e-05
13 *169:B2 *43:21 6.5117e-06
14 *17:21 *43:38 0.000274346
15 *17:33 *43:38 2.19403e-05
16 *18:10 *43:38 2.38387e-06
17 *22:8 *43:38 1.83408e-05
18 *23:10 *43:38 0.000160915
*RES
1 *188:X *43:8 33.5229 
2 *43:8 *163:A 23 
3 *43:8 *43:21 33.2314 
4 *43:21 *166:A1 23 
5 *43:8 *43:38 39.4664 
6 *43:38 *162:A 23 
*END

*D_NET *44 0.00602084
*CONN
*I *167:A I *D sky130_fd_sc_hd__nand2_1
*I *172:A I *D sky130_fd_sc_hd__nor2_1
*I *168:A I *D sky130_fd_sc_hd__or2_1
*I *189:X O *D sky130_fd_sc_hd__buf_1
*CAP
1 *167:A 1.41969e-05
2 *172:A 0
3 *168:A 0
4 *189:X 0.000531694
5 *44:35 0.000712335
6 *44:14 0.00139855
7 *44:8 0.0012321
8 *166:B1 *44:14 0.000242345
9 *169:B2 *44:14 7.17279e-05
10 *17:33 *44:35 2.11157e-05
11 *18:10 *44:14 0.000187856
12 *18:10 *44:35 4.44329e-05
13 *26:8 *167:A 2.95526e-05
14 *34:8 *44:8 0.000323738
15 *34:10 *44:14 0.00078187
16 *40:16 *167:A 5.82853e-05
17 *43:21 *44:14 0.000162263
18 *43:38 *44:14 0.000196452
19 *43:38 *44:35 1.23293e-05
*RES
1 *189:X *44:8 48.15 
2 *44:8 *44:14 33.5186 
3 *44:14 *168:A 23 
4 *44:14 *44:35 48.2641 
5 *44:35 *172:A 23 
6 *44:35 *167:A 23.6214 
*END

*D_NET *45 0.00155278
*CONN
*I *175:A I *D sky130_fd_sc_hd__or2_1
*I *174:A I *D sky130_fd_sc_hd__nand2_1
*I *190:X O *D sky130_fd_sc_hd__clkbuf_1
*CAP
1 *175:A 3.21119e-05
2 *174:A 0.000138521
3 *190:X 0.00043304
4 *45:8 0.000603672
5 *175:B *174:A 1.90877e-05
6 *27:12 *175:A 2.10502e-05
7 *40:10 *45:8 0.000305296
*RES
1 *190:X *45:8 48.005 
2 *45:8 *174:A 39.9161 
3 *45:8 *175:A 38.6214 
*END

*D_NET *46 0.001385
*CONN
*I *178:A I *D sky130_fd_sc_hd__and2_1
*I *179:A I *D sky130_fd_sc_hd__or2_1
*I *191:X O *D sky130_fd_sc_hd__clkbuf_1
*CAP
1 *178:A 0
2 *179:A 0.000180858
3 *191:X 0.00026755
4 *46:14 0.00021955
5 *46:10 0.000306242
6 *178:B *179:A 0.000236102
7 *10:15 *46:10 4.91172e-06
8 *41:12 *46:10 0.000169784
*RES
1 *191:X *46:10 43.3443 
2 *46:10 *46:14 15.6214 
3 *46:14 *179:A 26.9771 
4 *46:14 *178:A 23 
*END

*D_NET *47 0.00340536
*CONN
*I *163:B I *D sky130_fd_sc_hd__or2_1
*I *166:A2 I *D sky130_fd_sc_hd__o21ai_2
*I *162:B I *D sky130_fd_sc_hd__nand2_1
*I *192:X O *D sky130_fd_sc_hd__buf_1
*CAP
1 *163:B 0
2 *166:A2 0.000257832
3 *162:B 0.000199204
4 *192:X 0.000189415
5 *47:33 0.00120813
6 *47:12 0.00133892
7 *166:B1 *166:A2 1.12796e-05
8 *169:B2 *166:A2 1.34966e-05
9 *170:C *162:B 2.45549e-06
10 *195:A *47:33 8.57485e-05
11 *43:21 *166:A2 9.31273e-05
12 *43:21 *47:33 5.75756e-06
*RES
1 *192:X *47:12 41.7286 
2 *47:12 *162:B 41.1486 
3 *47:12 *47:33 43.7957 
4 *47:33 *166:A2 42.3293 
5 *47:33 *163:B 38 
*END
