*SPEF "ieee 1481-1999"
*DESIGN "rca_4bit"
*DATE "11:11:11 Fri 11 11, 1111"
*VENDOR "OpenRCX"
*PROGRAM "Parallel Extraction"
*VERSION "1.0"
*DESIGN_FLOW "NAME_SCOPE LOCAL" "PIN_CAP NONE"
*DIVIDER /
*DELIMITER :
*BUS_DELIMITER []
*T_UNIT 1 NS
*C_UNIT 1 PF
*R_UNIT 1 OHM
*L_UNIT 1 HENRY

*NAME_MAP
*3 a[0]
*4 a[1]
*5 a[2]
*6 a[3]
*7 b[0]
*8 b[1]
*9 b[2]
*10 b[3]
*11 cin
*12 cout
*13 sum[0]
*14 sum[1]
*15 sum[2]
*16 sum[3]
*17 _00_
*18 _01_
*19 _02_
*20 _03_
*21 _04_
*22 _05_
*23 _06_
*24 _07_
*25 _08_
*26 _09_
*27 _10_
*28 _11_
*29 _12_
*30 _13_
*31 _14_
*32 _15_
*33 _16_
*34 net1
*35 net10
*36 net11
*37 net12
*38 net13
*39 net14
*40 net2
*41 net3
*42 net4
*43 net5
*44 net6
*45 net7
*46 net8
*47 net9
*48 FILLER_0_0_14
*49 FILLER_0_0_20
*50 FILLER_0_0_29
*51 FILLER_0_0_41
*52 FILLER_0_0_51
*53 FILLER_0_0_55
*54 FILLER_0_0_57
*55 FILLER_0_0_6
*56 FILLER_0_0_69
*57 FILLER_0_1_18
*58 FILLER_0_1_30
*59 FILLER_0_1_42
*60 FILLER_0_1_54
*61 FILLER_0_1_57
*62 FILLER_0_1_6
*63 FILLER_0_1_69
*64 FILLER_0_2_15
*65 FILLER_0_2_27
*66 FILLER_0_2_29
*67 FILLER_0_2_3
*68 FILLER_0_2_41
*69 FILLER_0_2_53
*70 FILLER_0_2_65
*71 FILLER_0_2_76
*72 FILLER_0_2_80
*73 FILLER_0_3_15
*74 FILLER_0_3_27
*75 FILLER_0_3_3
*76 FILLER_0_3_39
*77 FILLER_0_3_51
*78 FILLER_0_3_55
*79 FILLER_0_3_57
*80 FILLER_0_3_76
*81 FILLER_0_3_80
*82 FILLER_0_4_15
*83 FILLER_0_4_27
*84 FILLER_0_4_29
*85 FILLER_0_4_3
*86 FILLER_0_4_38
*87 FILLER_0_4_50
*88 FILLER_0_4_58
*89 FILLER_0_4_63
*90 FILLER_0_4_72
*91 FILLER_0_4_76
*92 FILLER_0_5_15
*93 FILLER_0_5_23
*94 FILLER_0_5_3
*95 FILLER_0_5_41
*96 FILLER_0_5_53
*97 FILLER_0_5_57
*98 FILLER_0_5_73
*99 FILLER_0_6_18
*100 FILLER_0_6_22
*101 FILLER_0_6_47
*102 FILLER_0_6_56
*103 FILLER_0_6_6
*104 FILLER_0_6_68
*105 FILLER_0_6_80
*106 FILLER_0_7_15
*107 FILLER_0_7_27
*108 FILLER_0_7_3
*109 FILLER_0_7_40
*110 FILLER_0_7_52
*111 FILLER_0_7_57
*112 FILLER_0_7_69
*113 FILLER_0_8_15
*114 FILLER_0_8_27
*115 FILLER_0_8_29
*116 FILLER_0_8_3
*117 FILLER_0_8_41
*118 FILLER_0_8_53
*119 FILLER_0_8_65
*120 FILLER_0_8_77
*121 FILLER_0_9_15
*122 FILLER_0_9_27
*123 FILLER_0_9_29
*124 FILLER_0_9_37
*125 FILLER_0_9_41
*126 FILLER_0_9_53
*127 FILLER_0_9_57
*128 FILLER_0_9_65
*129 FILLER_0_9_69
*130 PHY_0
*131 PHY_1
*132 PHY_10
*133 PHY_11
*134 PHY_12
*135 PHY_13
*136 PHY_14
*137 PHY_15
*138 PHY_16
*139 PHY_17
*140 PHY_18
*141 PHY_19
*142 PHY_2
*143 PHY_3
*144 PHY_4
*145 PHY_5
*146 PHY_6
*147 PHY_7
*148 PHY_8
*149 PHY_9
*150 TAP_20
*151 TAP_21
*152 TAP_22
*153 TAP_23
*154 TAP_24
*155 TAP_25
*156 TAP_26
*157 TAP_27
*158 TAP_28
*159 TAP_29
*160 TAP_30
*161 TAP_31
*162 _17_
*163 _18_
*164 _19_
*165 _20_
*166 _21_
*167 _22_
*168 _23_
*169 _24_
*170 _25_
*171 _26_
*172 _27_
*173 _28_
*174 _29_
*175 _30_
*176 _31_
*177 _32_
*178 _33_
*179 _34_
*180 _35_
*181 _36_
*182 _37_
*183 _38_
*184 input1
*185 input2
*186 input3
*187 input4
*188 input5
*189 input6
*190 input7
*191 input8
*192 input9
*193 output10
*194 output11
*195 output12
*196 output13
*197 output14

*PORTS
a[0] I
a[1] I
a[2] I
a[3] I
b[0] I
b[1] I
b[2] I
b[3] I
cin I
cout O
sum[0] O
sum[1] O
sum[2] O
sum[3] O

*D_NET *3 0.000940471
*CONN
*P a[0] I
*I *184:A I *D sky130_fd_sc_hd__buf_1
*CAP
1 a[0] 0.000470235
2 *184:A 0.000470235
*RES
1 a[0] *184:A 23.0321 
*END

*D_NET *4 0.00133724
*CONN
*P a[1] I
*I *185:A I *D sky130_fd_sc_hd__buf_1
*CAP
1 a[1] 0.00058711
2 *185:A 0.00058711
3 *185:A *193:A 0.000163023
*RES
1 a[1] *185:A 21.9462 
*END

*D_NET *5 0.00103959
*CONN
*P a[2] I
*I *186:A I *D sky130_fd_sc_hd__clkbuf_1
*CAP
1 a[2] 0.000381388
2 *186:A 0.000381388
3 *186:A *191:A 0.000276816
*RES
1 a[2] *186:A 23.0321 
*END

*D_NET *6 0.000567242
*CONN
*P a[3] I
*I *187:A I *D sky130_fd_sc_hd__clkbuf_1
*CAP
1 a[3] 0.000283621
2 *187:A 0.000283621
3 *187:A *189:A 0
*RES
1 a[3] *187:A 20.8518 
*END

*D_NET *7 0.000526071
*CONN
*P b[0] I
*I *188:A I *D sky130_fd_sc_hd__buf_1
*CAP
1 b[0] 0.000263036
2 *188:A 0.000263036
*RES
1 b[0] *188:A 18.73 
*END

*D_NET *8 0.00142596
*CONN
*P b[1] I
*I *189:A I *D sky130_fd_sc_hd__buf_1
*CAP
1 b[1] 0.000712982
2 *189:A 0.000712982
3 *187:A *189:A 0
*RES
1 b[1] *189:A 27.5857 
*END

*D_NET *9 0.000957007
*CONN
*P b[2] I
*I *190:A I *D sky130_fd_sc_hd__clkbuf_1
*CAP
1 b[2] 0.000478504
2 *190:A 0.000478504
*RES
1 b[2] *190:A 23.175 
*END

*D_NET *10 0.0014861
*CONN
*P b[3] I
*I *191:A I *D sky130_fd_sc_hd__clkbuf_1
*CAP
1 b[3] 0.000602177
2 *191:A 0.000602177
3 *191:A *46:14 4.93118e-06
4 *186:A *191:A 0.000276816
*RES
1 b[3] *191:A 26.3575 
*END

*D_NET *11 0.00113055
*CONN
*P cin I
*I *192:A I *D sky130_fd_sc_hd__buf_1
*CAP
1 cin 0.000515284
2 *192:A 0.000515284
3 *192:A *38:14 9.99853e-05
*RES
1 cin *192:A 24.1214 
*END

*D_NET *12 0.00155559
*CONN
*P cout O
*I *193:X O *D sky130_fd_sc_hd__clkbuf_4
*CAP
1 cout 0.000777794
2 *193:X 0.000777794
*RES
1 *193:X cout 27.7821 
*END

*D_NET *13 0.00107995
*CONN
*P sum[0] O
*I *194:X O *D sky130_fd_sc_hd__clkbuf_4
*CAP
1 sum[0] 0.000525709
2 *194:X 0.000525709
3 sum[0] *194:A 2.85321e-05
*RES
1 *194:X sum[0] 23.1214 
*END

*D_NET *14 0.00255565
*CONN
*P sum[1] O
*I *195:X O *D sky130_fd_sc_hd__clkbuf_4
*CAP
1 sum[1] 0.00118337
2 *195:X 0.00118337
3 sum[1] *195:A 0.000172975
4 sum[1] *38:14 1.59373e-05
*RES
1 *195:X sum[1] 28.8301 
*END

*D_NET *15 0.000999419
*CONN
*P sum[2] O
*I *196:X O *D sky130_fd_sc_hd__clkbuf_4
*CAP
1 sum[2] 0.00049971
2 *196:X 0.00049971
*RES
1 *196:X sum[2] 22.8536 
*END

*D_NET *16 0.000772713
*CONN
*P sum[3] O
*I *197:X O *D sky130_fd_sc_hd__buf_2
*CAP
1 sum[3] 0.000386357
2 *197:X 0.000386357
*RES
1 *197:X sum[3] 21.2274 
*END

*D_NET *17 0.00247863
*CONN
*I *173:A1 I *D sky130_fd_sc_hd__a31o_1
*I *169:A1 I *D sky130_fd_sc_hd__a22o_1
*I *164:A I *D sky130_fd_sc_hd__nand2_1
*I *170:A I *D sky130_fd_sc_hd__nand4_1
*I *162:Y O *D sky130_fd_sc_hd__nand2_1
*CAP
1 *173:A1 4.58927e-05
2 *169:A1 0
3 *164:A 5.87782e-05
4 *170:A 0.00010163
5 *162:Y 0
6 *17:33 0.000233412
7 *17:21 0.000363241
8 *17:4 0.000244345
9 *164:A *164:B 0.000103596
10 *164:A *169:B1 0.000221551
11 *170:A *170:C 5.96516e-05
12 *170:A *171:B 5.66472e-05
13 *170:A *195:A 9.84174e-05
14 *173:A1 *168:B 9.58632e-05
15 *173:A1 *173:B1 5.33005e-05
16 *17:21 *162:A 0.000260223
17 *17:21 *170:C 9.97164e-05
18 *17:21 *171:A 1.0033e-05
19 *17:21 *173:B1 0.000139208
20 *17:33 *162:A 2.12733e-05
21 *17:33 *164:B 7.6997e-05
22 *17:33 *168:B 2.12733e-05
23 *17:33 *170:B 2.96489e-05
24 *17:33 *20:14 3.85084e-05
25 *17:33 *20:23 2.59251e-05
26 *17:33 *44:35 1.94945e-05
*RES
1 *162:Y *17:4 9.3 
2 *17:4 *170:A 11.4786 
3 *17:4 *17:21 13.1429 
4 *17:21 *17:33 12.75 
5 *17:33 *164:A 11.925 
6 *17:33 *169:A1 9.3 
7 *17:21 *173:A1 10.675 
*END

*D_NET *18 0.00146374
*CONN
*I *164:B I *D sky130_fd_sc_hd__nand2_1
*I *163:X O *D sky130_fd_sc_hd__or2_1
*CAP
1 *164:B 0.000415162
2 *163:X 0.000415162
3 *164:B *162:A 2.54304e-06
4 *164:B *168:B 5.33005e-05
5 *164:B *169:B1 3.18747e-05
6 *164:B *169:B2 3.41517e-06
7 *164:B *171:A 5.65955e-05
8 *164:B *20:23 7.74068e-05
9 *164:B *44:14 0.000184297
10 *164:B *44:35 4.33899e-05
11 *164:A *164:B 0.000103596
12 *17:33 *164:B 7.6997e-05
*RES
1 *163:X *164:B 35.0821 
*END

*D_NET *19 0.000483573
*CONN
*I *165:B I *D sky130_fd_sc_hd__xnor2_1
*I *164:Y O *D sky130_fd_sc_hd__nand2_1
*CAP
1 *165:B 0.000224738
2 *164:Y 0.000224738
3 *165:B *194:A 3.40979e-05
*RES
1 *164:Y *165:B 31.5464 
*END

*D_NET *20 0.00242642
*CONN
*I *170:B I *D sky130_fd_sc_hd__nand4_1
*I *173:A2 I *D sky130_fd_sc_hd__a31o_1
*I *169:A2 I *D sky130_fd_sc_hd__a22o_1
*I *166:Y O *D sky130_fd_sc_hd__o21ai_2
*CAP
1 *170:B 0.000399582
2 *173:A2 0.000111708
3 *169:A2 0
4 *166:Y 0.000228293
5 *20:23 0.000571657
6 *20:14 0.000288661
7 *170:B *171:A 0.000217875
8 *170:B *171:B 5.982e-05
9 *170:B *195:A 5.96105e-05
10 *173:A2 *168:B 9.41642e-05
11 *173:A2 *171:A 5.13496e-05
12 *173:A2 *21:12 2.22674e-05
13 *20:14 *166:B1 5.65955e-05
14 *20:14 *169:B2 1.59373e-05
15 *20:23 *171:A 7.74068e-05
16 *164:B *20:23 7.74068e-05
17 *17:33 *170:B 2.96489e-05
18 *17:33 *20:14 3.85084e-05
19 *17:33 *20:23 2.59251e-05
*RES
1 *166:Y *20:14 17.3714 
2 *20:14 *169:A2 13.8 
3 *20:14 *20:23 1.64286 
4 *20:23 *173:A2 24.4786 
5 *20:23 *170:B 20.0143 
*END

*D_NET *21 0.00327732
*CONN
*I *169:B1 I *D sky130_fd_sc_hd__a22o_1
*I *170:C I *D sky130_fd_sc_hd__nand4_1
*I *173:A3 I *D sky130_fd_sc_hd__a31o_1
*I *167:Y O *D sky130_fd_sc_hd__nand2_1
*CAP
1 *169:B1 0.000389617
2 *170:C 0.00048908
3 *173:A3 1.21804e-05
4 *167:Y 5.78347e-05
5 *21:12 0.000648858
6 *21:6 0.000595049
7 *169:B1 *166:B1 8.29398e-06
8 *169:B1 *169:B2 5.38444e-06
9 *170:C *162:B 2.51343e-06
10 *170:C *170:D 1.32056e-05
11 *170:C *171:A 8.87008e-06
12 *170:C *195:A 0.000263233
13 *173:A3 *168:B 5.49489e-05
14 *173:A3 *173:B1 5.49489e-05
15 *21:6 *40:16 9.84729e-05
16 *21:12 *168:B 9.80298e-05
17 *21:12 *40:16 4.17433e-05
18 *164:A *169:B1 0.000221551
19 *164:B *169:B1 3.18747e-05
20 *170:A *170:C 5.96516e-05
21 *173:A2 *21:12 2.22674e-05
22 *17:21 *170:C 9.97164e-05
*RES
1 *167:Y *21:6 10.2464 
2 *21:6 *21:12 6.58929 
3 *21:12 *173:A3 14.3357 
4 *21:12 *170:C 21.675 
5 *21:6 *169:B1 25.2286 
*END

*D_NET *22 0.00126611
*CONN
*I *170:D I *D sky130_fd_sc_hd__nand4_1
*I *169:B2 I *D sky130_fd_sc_hd__a22o_1
*I *168:X O *D sky130_fd_sc_hd__or2_1
*CAP
1 *170:D 0.00015856
2 *169:B2 0.00028507
3 *168:X 4.38377e-05
4 *22:8 0.000487468
5 *169:B2 *166:A1 6.93626e-06
6 *169:B2 *166:A2 1.32693e-05
7 *169:B2 *166:B1 9.04472e-05
8 *169:B2 *44:14 6.93072e-05
9 *170:D *195:A 5.49544e-05
10 *22:8 *162:A 1.83136e-05
11 *164:B *169:B2 3.41517e-06
12 *169:B1 *169:B2 5.38444e-06
13 *170:C *170:D 1.32056e-05
14 *20:14 *169:B2 1.59373e-05
*RES
1 *168:X *22:8 14.3357 
2 *22:8 *169:B2 19.175 
3 *22:8 *170:D 16.2821 
*END

*D_NET *23 0.000995812
*CONN
*I *171:A I *D sky130_fd_sc_hd__nand2_1
*I *169:X O *D sky130_fd_sc_hd__a22o_1
*CAP
1 *171:A 0.000214099
2 *169:X 0.000214099
3 *171:A *162:A 0.000145484
4 *164:B *171:A 5.65955e-05
5 *170:B *171:A 0.000217875
6 *170:C *171:A 8.87008e-06
7 *173:A2 *171:A 5.13496e-05
8 *17:21 *171:A 1.0033e-05
9 *20:23 *171:A 7.74068e-05
*RES
1 *169:X *171:A 32.5107 
*END

*D_NET *24 0.000206819
*CONN
*I *171:B I *D sky130_fd_sc_hd__nand2_1
*I *170:Y O *D sky130_fd_sc_hd__nand4_1
*CAP
1 *171:B 4.5176e-05
2 *170:Y 4.5176e-05
3 *170:A *171:B 5.66472e-05
4 *170:B *171:B 5.982e-05
*RES
1 *170:Y *171:B 19.8679 
*END

*D_NET *25 0.000641371
*CONN
*I *173:B1 I *D sky130_fd_sc_hd__a31o_1
*I *172:Y O *D sky130_fd_sc_hd__nor2_1
*CAP
1 *173:B1 9.09114e-05
2 *172:Y 9.09114e-05
3 *173:B1 *168:B 8.10645e-05
4 *173:B1 *26:8 0.000100037
5 *173:B1 *40:16 3.09893e-05
6 *173:A1 *173:B1 5.33005e-05
7 *173:A3 *173:B1 5.49489e-05
8 *17:21 *173:B1 0.000139208
*RES
1 *172:Y *173:B1 21.6 
*END

*D_NET *26 0.00170224
*CONN
*I *177:A I *D sky130_fd_sc_hd__xor2_1
*I *181:A1 I *D sky130_fd_sc_hd__a21boi_1
*I *173:X O *D sky130_fd_sc_hd__a31o_1
*CAP
1 *177:A 0
2 *181:A1 0.000382116
3 *173:X 0.00031261
4 *26:8 0.000694727
5 *181:A1 *181:A2 2.07878e-05
6 *181:A1 *27:12 4.85049e-06
7 *26:8 *167:A 2.85321e-05
8 *26:8 *40:14 0.0001149
9 *26:8 *40:16 4.36762e-05
10 *173:B1 *26:8 0.000100037
*RES
1 *173:X *26:8 15.4964 
2 *26:8 *181:A1 22.9429 
3 *26:8 *177:A 9.3 
*END

*D_NET *27 0.0012441
*CONN
*I *176:A I *D sky130_fd_sc_hd__nand2_1
*I *181:A2 I *D sky130_fd_sc_hd__a21boi_1
*I *174:Y O *D sky130_fd_sc_hd__nand2_1
*CAP
1 *176:A 0.000148837
2 *181:A2 4.55398e-05
3 *174:Y 0.000240294
4 *27:12 0.000434671
5 *176:A *177:B 3.0102e-05
6 *27:12 *175:A 2.11336e-05
7 *27:12 *175:B 2.64196e-05
8 *27:12 *28:6 5.50052e-05
9 *27:12 *33:10 0.000216465
10 *181:A1 *181:A2 2.07878e-05
11 *181:A1 *27:12 4.85049e-06
*RES
1 *174:Y *27:12 14.925 
2 *27:12 *181:A2 10.2643 
3 *27:12 *176:A 21.1036 
*END

*D_NET *28 0.000551869
*CONN
*I *181:B1_N I *D sky130_fd_sc_hd__a21boi_1
*I *176:B I *D sky130_fd_sc_hd__nand2_1
*I *175:X O *D sky130_fd_sc_hd__or2_1
*CAP
1 *181:B1_N 0
2 *176:B 0.000213486
3 *175:X 2.34942e-05
4 *28:6 0.00023698
5 *176:B *182:B 3.67279e-06
6 *176:B *33:10 1.92303e-05
7 *27:12 *28:6 5.50052e-05
*RES
1 *175:X *28:6 9.83571 
2 *28:6 *176:B 21.925 
3 *28:6 *181:B1_N 9.3 
*END

*D_NET *29 0.00107265
*CONN
*I *177:B I *D sky130_fd_sc_hd__xor2_1
*I *176:Y O *D sky130_fd_sc_hd__nand2_1
*CAP
1 *177:B 0.000483409
2 *176:Y 0.000483409
3 *177:B *40:14 7.57312e-05
4 *176:A *177:B 3.0102e-05
*RES
1 *176:Y *177:B 35.1 
*END

*D_NET *30 0.00159918
*CONN
*I *183:A1 I *D sky130_fd_sc_hd__o21a_1
*I *180:A I *D sky130_fd_sc_hd__or2b_1
*I *178:X O *D sky130_fd_sc_hd__and2_1
*CAP
1 *183:A1 0.000153576
2 *180:A 0.000158088
3 *178:X 0.000171163
4 *30:12 0.000482827
5 *180:A *182:A 3.90632e-05
6 *180:A *182:B 5.50052e-05
7 *180:A *197:A 9.82786e-05
8 *183:A1 *182:B 0.000222024
9 *183:A1 *31:10 6.14702e-06
10 *30:12 *178:B 0.000126204
11 *30:12 *31:10 7.95501e-05
12 *30:12 *42:16 7.25873e-06
*RES
1 *178:X *30:12 17.4429 
2 *30:12 *180:A 15.9786 
3 *30:12 *183:A1 16.9607 
*END

*D_NET *31 0.000857029
*CONN
*I *183:B1 I *D sky130_fd_sc_hd__o21a_1
*I *180:B_N I *D sky130_fd_sc_hd__or2b_1
*I *179:X O *D sky130_fd_sc_hd__or2_1
*CAP
1 *183:B1 7.75228e-05
2 *180:B_N 4.68286e-05
3 *179:X 0.000176194
4 *31:10 0.000300545
5 *180:B_N *182:A 5.49544e-05
6 *183:B1 *182:B 7.46072e-05
7 *31:10 *182:B 4.06796e-05
8 *183:A1 *31:10 6.14702e-06
9 *30:12 *31:10 7.95501e-05
*RES
1 *179:X *31:10 16.5857 
2 *31:10 *180:B_N 14.7643 
3 *31:10 *183:B1 15.7464 
*END

*D_NET *32 0.000830497
*CONN
*I *182:A I *D sky130_fd_sc_hd__xnor2_1
*I *180:X O *D sky130_fd_sc_hd__or2b_1
*CAP
1 *182:A 0.000179241
2 *180:X 0.000179241
3 *182:A *182:B 0.000106093
4 *182:A *197:A 0.000271904
5 *180:A *182:A 3.90632e-05
6 *180:B_N *182:A 5.49544e-05
*RES
1 *180:X *182:A 23.2607 
*END

*D_NET *33 0.00155851
*CONN
*I *183:A2 I *D sky130_fd_sc_hd__o21a_1
*I *182:B I *D sky130_fd_sc_hd__xnor2_1
*I *181:Y O *D sky130_fd_sc_hd__a21boi_1
*CAP
1 *183:A2 0
2 *182:B 0.000201147
3 *181:Y 0.00020922
4 *33:10 0.000410367
5 *176:B *182:B 3.67279e-06
6 *176:B *33:10 1.92303e-05
7 *180:A *182:B 5.50052e-05
8 *182:A *182:B 0.000106093
9 *183:A1 *182:B 0.000222024
10 *183:B1 *182:B 7.46072e-05
11 *27:12 *33:10 0.000216465
12 *31:10 *182:B 4.06796e-05
*RES
1 *181:Y *33:10 17.0143 
2 *33:10 *182:B 19.3536 
3 *33:10 *183:A2 13.8 
*END

*D_NET *34 0.00323978
*CONN
*I *166:B1 I *D sky130_fd_sc_hd__o21ai_2
*I *165:A I *D sky130_fd_sc_hd__xnor2_1
*I *184:X O *D sky130_fd_sc_hd__buf_1
*CAP
1 *166:B1 0.000191218
2 *165:A 0.000159823
3 *184:X 0.00057122
4 *34:10 0.000922261
5 *166:B1 *166:A2 1.02301e-05
6 *166:B1 *44:14 0.000215854
7 *34:10 *44:14 0.00101384
8 *169:B1 *166:B1 8.29398e-06
9 *169:B2 *166:B1 9.04472e-05
10 *20:14 *166:B1 5.65955e-05
*RES
1 *184:X *34:10 26.1393 
2 *34:10 *165:A 16.3893 
3 *34:10 *166:B1 18.8714 
*END

*D_NET *35 0.00183352
*CONN
*I *193:A I *D sky130_fd_sc_hd__clkbuf_4
*I *183:X O *D sky130_fd_sc_hd__o21a_1
*CAP
1 *193:A 0.000797349
2 *183:X 0.000797349
3 *193:A *41:12 7.5802e-05
4 *185:A *193:A 0.000163023
*RES
1 *183:X *193:A 41.4393 
*END

*D_NET *36 0.00163948
*CONN
*I *194:A I *D sky130_fd_sc_hd__clkbuf_4
*I *165:Y O *D sky130_fd_sc_hd__xnor2_1
*CAP
1 *194:A 0.000788427
2 *165:Y 0.000788427
3 sum[0] *194:A 2.85321e-05
4 *165:B *194:A 3.40979e-05
*RES
1 *165:Y *194:A 40.7786 
*END

*D_NET *37 0.00244648
*CONN
*I *195:A I *D sky130_fd_sc_hd__clkbuf_4
*I *171:Y O *D sky130_fd_sc_hd__nand2_1
*CAP
1 *195:A 0.000615359
2 *171:Y 0.000615359
3 *195:A *38:14 0.00048916
4 *195:A *47:33 7.74068e-05
5 sum[1] *195:A 0.000172975
6 *170:A *195:A 9.84174e-05
7 *170:B *195:A 5.96105e-05
8 *170:C *195:A 0.000263233
9 *170:D *195:A 5.49544e-05
*RES
1 *171:Y *195:A 42.85 
*END

*D_NET *38 0.00323138
*CONN
*I *196:A I *D sky130_fd_sc_hd__clkbuf_4
*I *177:X O *D sky130_fd_sc_hd__xor2_1
*CAP
1 *196:A 0
2 *177:X 0.00131315
3 *38:14 0.00131315
4 sum[1] *38:14 1.59373e-05
5 *192:A *38:14 9.99853e-05
6 *195:A *38:14 0.00048916
*RES
1 *177:X *38:14 42.6036 
2 *38:14 *196:A 9.3 
*END

*D_NET *39 0.00114042
*CONN
*I *197:A I *D sky130_fd_sc_hd__buf_2
*I *182:Y O *D sky130_fd_sc_hd__xnor2_1
*CAP
1 *197:A 0.000284397
2 *182:Y 0.000284397
3 *197:A *41:12 0.000201442
4 *180:A *197:A 9.82786e-05
5 *182:A *197:A 0.000271904
*RES
1 *182:Y *197:A 33.9929 
*END

*D_NET *40 0.0037002
*CONN
*I *167:B I *D sky130_fd_sc_hd__nand2_1
*I *172:B I *D sky130_fd_sc_hd__nor2_1
*I *168:B I *D sky130_fd_sc_hd__or2_1
*I *185:X O *D sky130_fd_sc_hd__buf_1
*CAP
1 *167:B 1.6602e-05
2 *172:B 1.78392e-05
3 *168:B 0.000127846
4 *185:X 0.000994753
5 *40:16 0.000211053
6 *40:14 0.00107672
7 *40:14 *45:8 0.000294533
8 *40:16 *167:A 5.66971e-05
9 *164:B *168:B 5.33005e-05
10 *173:A1 *168:B 9.58632e-05
11 *173:A2 *168:B 9.41642e-05
12 *173:A3 *168:B 5.49489e-05
13 *173:B1 *168:B 8.10645e-05
14 *173:B1 *40:16 3.09893e-05
15 *177:B *40:14 7.57312e-05
16 *17:33 *168:B 2.12733e-05
17 *21:6 *40:16 9.84729e-05
18 *21:12 *168:B 9.80298e-05
19 *21:12 *40:16 4.17433e-05
20 *26:8 *40:14 0.0001149
21 *26:8 *40:16 4.36762e-05
*RES
1 *185:X *40:14 36.3357 
2 *40:14 *40:16 2.17857 
3 *40:16 *168:B 12.7107 
4 *40:16 *172:B 9.72857 
5 *40:14 *167:B 9.72857 
*END

*D_NET *41 0.00225367
*CONN
*I *175:B I *D sky130_fd_sc_hd__or2_1
*I *174:B I *D sky130_fd_sc_hd__nand2_1
*I *186:X O *D sky130_fd_sc_hd__clkbuf_1
*CAP
1 *175:B 0.000160827
2 *174:B 0
3 *186:X 0.000723268
4 *41:12 0.000884095
5 *175:B *174:A 1.79283e-05
6 *41:12 *46:14 0.000163883
7 *193:A *41:12 7.5802e-05
8 *197:A *41:12 0.000201442
9 *27:12 *175:B 2.64196e-05
*RES
1 *186:X *41:12 32.55 
2 *41:12 *174:B 9.3 
3 *41:12 *175:B 12.1214 
*END

*D_NET *42 0.00402494
*CONN
*I *178:B I *D sky130_fd_sc_hd__and2_1
*I *179:B I *D sky130_fd_sc_hd__or2_1
*I *187:X O *D sky130_fd_sc_hd__clkbuf_1
*CAP
1 *178:B 7.90971e-05
2 *179:B 0
3 *187:X 0.0017515
4 *42:16 0.00183059
5 *178:B *179:A 0.000230284
6 *30:12 *178:B 0.000126204
7 *30:12 *42:16 7.25873e-06
*RES
1 *187:X *42:16 45.3714 
2 *42:16 *179:B 9.3 
3 *42:16 *178:B 12.3 
*END

*D_NET *43 0.00358954
*CONN
*I *162:A I *D sky130_fd_sc_hd__nand2_1
*I *166:A1 I *D sky130_fd_sc_hd__o21ai_2
*I *163:A I *D sky130_fd_sc_hd__or2_1
*I *188:X O *D sky130_fd_sc_hd__buf_1
*CAP
1 *162:A 0.000439961
2 *166:A1 0.000136463
3 *163:A 0
4 *188:X 0.000766619
5 *43:8 0.00134304
6 *162:A *44:14 0.000194071
7 *162:A *44:35 1.28171e-05
8 *166:A1 *166:A2 8.99839e-05
9 *166:A1 *44:14 0.000146261
10 *166:A1 *47:33 5.54817e-06
11 *164:B *162:A 2.54304e-06
12 *169:B2 *166:A1 6.93626e-06
13 *171:A *162:A 0.000145484
14 *17:21 *162:A 0.000260223
15 *17:33 *162:A 2.12733e-05
16 *22:8 *162:A 1.83136e-05
*RES
1 *188:X *43:8 18.3714 
2 *43:8 *163:A 9.3 
3 *43:8 *166:A1 21.0857 
4 *43:8 *162:A 26.4607 
*END

*D_NET *44 0.00545164
*CONN
*I *167:A I *D sky130_fd_sc_hd__nand2_1
*I *172:A I *D sky130_fd_sc_hd__nor2_1
*I *168:A I *D sky130_fd_sc_hd__or2_1
*I *189:X O *D sky130_fd_sc_hd__buf_1
*CAP
1 *167:A 1.16469e-05
2 *172:A 0
3 *168:A 0
4 *189:X 0.0010918
5 *44:35 0.000641745
6 *44:14 0.00172189
7 *162:A *44:14 0.000194071
8 *162:A *44:35 1.28171e-05
9 *164:B *44:14 0.000184297
10 *164:B *44:35 4.33899e-05
11 *166:A1 *44:14 0.000146261
12 *166:B1 *44:14 0.000215854
13 *169:B2 *44:14 6.93072e-05
14 *17:33 *44:35 1.94945e-05
15 *26:8 *167:A 2.85321e-05
16 *34:10 *44:14 0.00101384
17 *40:16 *167:A 5.66971e-05
*RES
1 *189:X *44:14 43.0143 
2 *44:14 *168:A 9.3 
3 *44:14 *44:35 17.749 
4 *44:35 *172:A 9.3 
5 *44:35 *167:A 9.83571 
*END

*D_NET *45 0.00142045
*CONN
*I *175:A I *D sky130_fd_sc_hd__or2_1
*I *174:A I *D sky130_fd_sc_hd__nand2_1
*I *190:X O *D sky130_fd_sc_hd__clkbuf_1
*CAP
1 *175:A 2.85542e-05
2 *174:A 0.000129355
3 *190:X 0.000385516
4 *45:8 0.000543425
5 *175:B *174:A 1.79283e-05
6 *27:12 *175:A 2.11336e-05
7 *40:14 *45:8 0.000294533
*RES
1 *190:X *45:8 22.425 
2 *45:8 *174:A 15.4518 
3 *45:8 *175:A 14.3357 
*END

*D_NET *46 0.00128141
*CONN
*I *178:A I *D sky130_fd_sc_hd__and2_1
*I *179:A I *D sky130_fd_sc_hd__or2_1
*I *191:X O *D sky130_fd_sc_hd__clkbuf_1
*CAP
1 *178:A 0
2 *179:A 0.000171359
3 *191:X 0.000269794
4 *46:14 0.000441154
5 *178:B *179:A 0.000230284
6 *191:A *46:14 4.93118e-06
7 *41:12 *46:14 0.000163883
*RES
1 *191:X *46:14 23.4429 
2 *46:14 *179:A 12.7286 
3 *46:14 *178:A 9.3 
*END

*D_NET *47 0.00314858
*CONN
*I *163:B I *D sky130_fd_sc_hd__or2_1
*I *166:A2 I *D sky130_fd_sc_hd__o21ai_2
*I *162:B I *D sky130_fd_sc_hd__nand2_1
*I *192:X O *D sky130_fd_sc_hd__buf_1
*CAP
1 *163:B 0
2 *166:A2 0.000229532
3 *162:B 0.000177515
4 *192:X 0.000176098
5 *47:33 0.0011212
6 *47:12 0.00124528
7 *166:A1 *166:A2 8.99839e-05
8 *166:A1 *47:33 5.54817e-06
9 *166:B1 *166:A2 1.02301e-05
10 *169:B2 *166:A2 1.32693e-05
11 *170:C *162:B 2.51343e-06
12 *195:A *47:33 7.74068e-05
*RES
1 *192:X *47:12 17.0143 
2 *47:12 *162:B 16.5143 
3 *47:12 *47:33 20.8929 
4 *47:33 *166:A2 17.5321 
5 *47:33 *163:B 13.8 
*END
